<?xml version="1.0" encoding="UTF-8"?>

<!-- generated on 2023-10-26 18:01:10 by Eclipse SUMO netedit Version 1.18.0
-->

<routes xmlns:xsi="http://www.w3.org/2001/XMLSchema-instance" xsi:noNamespaceSchemaLocation="http://sumo.dlr.de/xsd/routes_file.xsd">
    <!-- Routes -->
    <routeDistribution id="ways">
        <route id="r_0" edges="E0 E3" probability="3"/>
        <route id="r_1" edges="E0 E1" probability="12"/>
        <route id="r_2" edges="E2 E3" probability="4"/>
        <route id="r_3" edges="E2 E1" probability="1"/>
    </routeDistribution>
    <!-- Vehicles, persons and containers (sorted by depart) -->
    <flow id="f_0" begin="0.00" route="ways" end="10000.00" vehsPerHour="1800.00"/>
</routes>
