<?xml version="1.0" encoding="UTF-8"?>

<!-- generated on 2023-10-26 18:01:10 by Eclipse SUMO netedit Version 1.18.0
<configuration xmlns:xsi="http://www.w3.org/2001/XMLSchema-instance" xsi:noNamespaceSchemaLocation="http://sumo.dlr.de/xsd/neteditConfiguration.xsd">

    <input>
        <sumocfg-file value="D:\Personal\dESKTOP\Egyretem\PJ\fumocrossing\fumocrossing.sumocfg"/>
        <sumo-net-file value="D:\Personal\dESKTOP\Egyretem\PJ\fumocrossing\fumocrossing.net.xml"/>
    </input>

    <output>
        <output-file value="D:\Personal\dESKTOP\Egyretem\PJ\fumocrossing\fumocrossing.net.xml"/>
    </output>

    <processing>
        <offset.disable-normalization value="true"/>
    </processing>

    <junctions>
        <no-turnarounds value="true"/>
    </junctions>

    <netedit>
        <new-network value="false"/>
    </netedit>

</configuration>
-->

<net version="1.16" junctionCornerDetail="5" limitTurnSpeed="5.50" xmlns:xsi="http://www.w3.org/2001/XMLSchema-instance" xsi:noNamespaceSchemaLocation="http://sumo.dlr.de/xsd/net_file.xsd">

    <location netOffset="0.00,0.00" convBoundary="-32.74,17.03,61.27,99.48" origBoundary="10000000000.00,10000000000.00,-10000000000.00,-10000000000.00" projParameter="!"/>

    <edge id=":J1_0" function="internal">
        <lane id=":J1_0_0" index="0" speed="6.52" length="9.06" shape="24.13,36.99 26.59,36.63 28.34,35.58 29.40,33.82 29.75,31.36"/>
        <lane id=":J1_0_1" index="1" speed="7.34" length="11.75" shape="24.13,36.99 27.99,36.63 30.74,35.57 32.40,33.82 32.95,31.36"/>
        <lane id=":J1_0_2" index="2" speed="8.11" length="14.59" shape="24.13,36.99 29.39,36.63 33.14,35.57 35.40,33.82 36.15,31.36"/>
    </edge>
    <edge id=":J1_3" function="internal">
        <lane id=":J1_3_0" index="0" speed="13.89" length="20.85" shape="24.13,36.99 45.03,36.99"/>
        <lane id=":J1_3_1" index="1" speed="13.89" length="20.85" shape="24.14,40.19 45.00,40.19"/>
        <lane id=":J1_3_2" index="2" speed="13.89" length="20.85" shape="24.14,43.39 44.98,43.39"/>
        <lane id=":J1_3_3" index="3" speed="13.89" length="20.85" shape="24.15,46.59 44.95,46.59"/>
    </edge>
    <edge id=":J1_7" function="internal">
        <lane id=":J1_7_0" index="0" speed="13.89" length="20.84" shape="29.72,52.18 29.75,31.36"/>
        <lane id=":J1_7_1" index="1" speed="13.89" length="20.84" shape="32.92,52.20 32.95,31.36"/>
        <lane id=":J1_7_2" index="2" speed="13.89" length="20.84" shape="36.12,52.22 36.15,31.36"/>
        <lane id=":J1_7_3" index="3" speed="13.89" length="20.84" shape="39.32,52.23 39.35,31.36"/>
    </edge>
    <edge id=":J1_11" function="internal">
        <lane id=":J1_11_0" index="0" speed="7.34" length="11.80" shape="39.32,52.23 39.69,48.35 40.76,45.58 42.52,43.93 44.98,43.39"/>
        <lane id=":J1_11_1" index="1" speed="6.52" length="9.09" shape="39.32,52.23 39.69,49.75 40.75,47.98 42.50,46.93 44.95,46.59"/>
    </edge>

    <edge id="E0" from="J0" to="J1" priority="-1">
        <lane id="E0_0" index="0" speed="13.89" length="56.89" shape="-32.76,37.08 24.13,36.99"/>
        <lane id="E0_1" index="1" speed="13.89" length="56.89" shape="-32.75,40.28 24.14,40.19"/>
        <lane id="E0_2" index="2" speed="13.89" length="56.89" shape="-32.75,43.48 24.14,43.39"/>
        <lane id="E0_3" index="3" speed="13.89" length="56.89" shape="-32.74,46.68 24.15,46.59"/>
    </edge>
    <edge id="E1" from="J1" to="J2" priority="-1">
        <lane id="E1_0" index="0" speed="13.89" length="16.33" shape="45.03,36.99 61.36,37.12"/>
        <lane id="E1_1" index="1" speed="13.89" length="16.33" shape="45.00,40.19 61.33,40.32"/>
        <lane id="E1_2" index="2" speed="13.89" length="16.33" shape="44.98,43.39 61.31,43.52"/>
        <lane id="E1_3" index="3" speed="13.89" length="16.33" shape="44.95,46.59 61.28,46.72"/>
    </edge>
    <edge id="E2" from="J3" to="J1" priority="-1">
        <lane id="E2_0" index="0" speed="13.89" length="47.24" shape="29.46,99.42 29.72,52.18"/>
        <lane id="E2_1" index="1" speed="13.89" length="47.24" shape="32.66,99.44 32.92,52.20"/>
        <lane id="E2_2" index="2" speed="13.89" length="47.24" shape="35.86,99.45 36.12,52.22"/>
        <lane id="E2_3" index="3" speed="13.89" length="47.24" shape="39.06,99.47 39.32,52.23"/>
    </edge>
    <edge id="E3" from="J1" to="J4" priority="-1">
        <lane id="E3_0" index="0" speed="13.89" length="14.33" shape="29.75,31.36 29.75,17.03"/>
        <lane id="E3_1" index="1" speed="13.89" length="14.33" shape="32.95,31.36 32.95,17.03"/>
        <lane id="E3_2" index="2" speed="13.89" length="14.33" shape="36.15,31.36 36.15,17.03"/>
        <lane id="E3_3" index="3" speed="13.89" length="14.33" shape="39.35,31.36 39.35,17.03"/>
    </edge>

    <tlLogic id="main_light" type="static" programID="0" offset="0">
        <phase duration="42" state="GGGGGGGrrrrrr"/>
        <phase duration="42" state="rrrrrrrGGGGGG"/>
    </tlLogic>

    <junction id="J0" type="dead_end" x="-32.74" y="48.28" incLanes="" intLanes="" shape="-32.74,48.28 -32.76,35.48"/>
    <junction id="J1" type="traffic_light" x="40.95" y="48.16" incLanes="E0_0 E0_1 E0_2 E0_3 E2_0 E2_1 E2_2 E2_3" intLanes=":J1_0_0 :J1_0_1 :J1_0_2 :J1_3_0 :J1_3_1 :J1_3_2 :J1_3_3 :J1_7_0 :J1_7_1 :J1_7_2 :J1_7_3 :J1_11_0 :J1_11_1" shape="44.94,48.19 45.04,35.39 42.77,34.93 41.97,34.37 41.40,33.59 41.06,32.59 40.95,31.36 28.15,31.36 27.70,33.59 27.14,34.38 26.36,34.94 25.36,35.27 24.13,35.39 24.15,48.19 26.37,48.63 27.14,49.18 27.69,49.95 28.02,50.95 28.12,52.17 40.92,52.24 41.38,49.98 41.94,49.19 42.72,48.63 43.72,48.29">
        <request index="0"  response="0000000000000" foes="0011110000000" cont="0"/>
        <request index="1"  response="0000000000000" foes="0011110000000" cont="0"/>
        <request index="2"  response="0000000000000" foes="0011110000000" cont="0"/>
        <request index="3"  response="0000000000000" foes="1111110000000" cont="0"/>
        <request index="4"  response="0000000000000" foes="1111110000000" cont="0"/>
        <request index="5"  response="0000000000000" foes="1111110000000" cont="0"/>
        <request index="6"  response="0000000000000" foes="1111110000000" cont="0"/>
        <request index="7"  response="0000001111111" foes="0000001111111" cont="0"/>
        <request index="8"  response="0000001111111" foes="0000001111111" cont="0"/>
        <request index="9"  response="0000001111111" foes="0000001111111" cont="0"/>
        <request index="10" response="0000001111111" foes="0000001111111" cont="0"/>
        <request index="11" response="0000001111000" foes="0000001111000" cont="0"/>
        <request index="12" response="0000001111000" foes="0000001111000" cont="0"/>
    </junction>
    <junction id="J2" type="dead_end" x="61.27" y="48.32" incLanes="E1_0 E1_1 E1_2 E1_3" intLanes="" shape="61.37,35.52 61.27,48.32"/>
    <junction id="J3" type="dead_end" x="40.66" y="99.48" incLanes="" intLanes="" shape="40.66,99.48 27.86,99.41"/>
    <junction id="J4" type="dead_end" x="40.95" y="17.03" incLanes="E3_0 E3_1 E3_2 E3_3" intLanes="" shape="28.15,17.03 40.95,17.03"/>

    <connection from="E0" to="E3" fromLane="0" toLane="0" via=":J1_0_0" tl="main_light" linkIndex="0" dir="r" state="O"/>
    <connection from="E0" to="E3" fromLane="0" toLane="1" via=":J1_0_1" tl="main_light" linkIndex="1" dir="r" state="O"/>
    <connection from="E0" to="E3" fromLane="0" toLane="2" via=":J1_0_2" tl="main_light" linkIndex="2" dir="r" state="O"/>
    <connection from="E0" to="E1" fromLane="0" toLane="0" via=":J1_3_0" tl="main_light" linkIndex="3" dir="s" state="O"/>
    <connection from="E0" to="E1" fromLane="1" toLane="1" via=":J1_3_1" tl="main_light" linkIndex="4" dir="s" state="O"/>
    <connection from="E0" to="E1" fromLane="2" toLane="2" via=":J1_3_2" tl="main_light" linkIndex="5" dir="s" state="O"/>
    <connection from="E0" to="E1" fromLane="3" toLane="3" via=":J1_3_3" tl="main_light" linkIndex="6" dir="s" state="O"/>
    <connection from="E2" to="E3" fromLane="0" toLane="0" via=":J1_7_0" tl="main_light" linkIndex="7" dir="s" state="o"/>
    <connection from="E2" to="E3" fromLane="1" toLane="1" via=":J1_7_1" tl="main_light" linkIndex="8" dir="s" state="o"/>
    <connection from="E2" to="E3" fromLane="2" toLane="2" via=":J1_7_2" tl="main_light" linkIndex="9" dir="s" state="o"/>
    <connection from="E2" to="E3" fromLane="3" toLane="3" via=":J1_7_3" tl="main_light" linkIndex="10" dir="s" state="o"/>
    <connection from="E2" to="E1" fromLane="3" toLane="2" via=":J1_11_0" tl="main_light" linkIndex="11" dir="l" state="o"/>
    <connection from="E2" to="E1" fromLane="3" toLane="3" via=":J1_11_1" tl="main_light" linkIndex="12" dir="l" state="o"/>

    <connection from=":J1_0" to="E3" fromLane="0" toLane="0" dir="r" state="M"/>
    <connection from=":J1_0" to="E3" fromLane="1" toLane="1" dir="r" state="M"/>
    <connection from=":J1_0" to="E3" fromLane="2" toLane="2" dir="r" state="M"/>
    <connection from=":J1_3" to="E1" fromLane="0" toLane="0" dir="s" state="M"/>
    <connection from=":J1_3" to="E1" fromLane="1" toLane="1" dir="s" state="M"/>
    <connection from=":J1_3" to="E1" fromLane="2" toLane="2" dir="s" state="M"/>
    <connection from=":J1_3" to="E1" fromLane="3" toLane="3" dir="s" state="M"/>
    <connection from=":J1_7" to="E3" fromLane="0" toLane="0" dir="s" state="M"/>
    <connection from=":J1_7" to="E3" fromLane="1" toLane="1" dir="s" state="M"/>
    <connection from=":J1_7" to="E3" fromLane="2" toLane="2" dir="s" state="M"/>
    <connection from=":J1_7" to="E3" fromLane="3" toLane="3" dir="s" state="M"/>
    <connection from=":J1_11" to="E1" fromLane="0" toLane="2" dir="l" state="M"/>
    <connection from=":J1_11" to="E1" fromLane="1" toLane="3" dir="l" state="M"/>

</net>
