<?xml version="1.0" encoding="UTF-8"?>

<!-- generated on 2023-12-10 17:07:22 by Eclipse SUMO netedit Version 1.19.0
<configuration xmlns:xsi="http://www.w3.org/2001/XMLSchema-instance" xsi:noNamespaceSchemaLocation="http://sumo.dlr.de/xsd/neteditConfiguration.xsd">

    <input>
        <sumo-net-file value="C:\Users\Fumo\Desktop\Egyretem\Projekt\1w_all.net.xml"/>
    </input>

    <output>
        <output-file value="C:\Users\Fumo\Desktop\Egyretem\Projekt\1w_all.net.xml"/>
    </output>

    <processing>
        <geometry.min-radius.fix.railways value="false"/>
        <geometry.max-grade.fix value="false"/>
        <offset.disable-normalization value="true"/>
        <lefthand value="0"/>
    </processing>

    <junctions>
        <no-turnarounds value="true"/>
        <junctions.corner-detail value="5"/>
        <junctions.limit-turn-speed value="5.50"/>
        <rectangular-lane-cut value="0"/>
    </junctions>

    <pedestrian>
        <walkingareas value="0"/>
    </pedestrian>

</configuration>
-->

<net version="1.16" junctionCornerDetail="5" limitTurnSpeed="5.50" xmlns:xsi="http://www.w3.org/2001/XMLSchema-instance" xsi:noNamespaceSchemaLocation="http://sumo.dlr.de/xsd/net_file.xsd">

    <location netOffset="0.00,0.00" convBoundary="0.00,0.00,200.00,200.00" origBoundary="0.00,0.00,200.00,200.00" projParameter="!"/>

    <edge id=":A1_0" function="internal">
        <lane id=":A1_0_0" index="0" speed="3.65" length="4.67" shape="0.00,101.60 -1.20,100.80 -1.60,100.00 -1.20,99.20 0.00,98.40"/>
    </edge>
    <edge id=":B0_0" function="internal">
        <lane id=":B0_0_0" index="0" speed="3.65" length="4.67" shape="98.40,0.00 99.20,-1.20 100.00,-1.60 100.80,-1.20 101.60,0.00"/>
    </edge>
    <edge id=":B1_0" function="internal">
        <lane id=":B1_0_0" index="0" speed="6.51" length="9.03" shape="95.20,110.40 94.85,107.95 93.80,106.20 92.05,105.15 89.60,104.80"/>
    </edge>
    <edge id=":B1_1" function="internal">
        <lane id=":B1_1_0" index="0" speed="13.89" length="20.80" shape="95.20,110.40 95.20,89.60"/>
        <lane id=":B1_1_1" index="1" speed="13.89" length="20.80" shape="98.40,110.40 98.40,89.60"/>
    </edge>
    <edge id=":B1_3" function="internal">
        <lane id=":B1_3_0" index="0" speed="9.26" length="5.01" shape="98.40,110.40 99.11,105.44"/>
    </edge>
    <edge id=":B1_4" function="internal">
        <lane id=":B1_4_0" index="0" speed="3.65" length="1.44" shape="98.40,110.40 99.20,109.20"/>
    </edge>
    <edge id=":B1_20" function="internal">
        <lane id=":B1_20_0" index="0" speed="9.26" length="14.34" shape="99.11,105.44 99.15,105.15 101.40,101.40 105.15,99.15 110.40,98.40"/>
    </edge>
    <edge id=":B1_21" function="internal">
        <lane id=":B1_21_0" index="0" speed="3.65" length="3.23" shape="99.20,109.20 100.00,108.80 100.80,109.20 101.60,110.40"/>
    </edge>
    <edge id=":B1_5" function="internal">
        <lane id=":B1_5_0" index="0" speed="6.51" length="9.03" shape="110.40,104.80 107.95,105.15 106.20,106.20 105.15,107.95 104.80,110.40"/>
    </edge>
    <edge id=":B1_6" function="internal">
        <lane id=":B1_6_0" index="0" speed="13.89" length="20.80" shape="110.40,104.80 89.60,104.80"/>
        <lane id=":B1_6_1" index="1" speed="13.89" length="20.80" shape="110.40,101.60 89.60,101.60"/>
    </edge>
    <edge id=":B1_8" function="internal">
        <lane id=":B1_8_0" index="0" speed="9.26" length="5.01" shape="110.40,101.60 105.44,100.89"/>
    </edge>
    <edge id=":B1_9" function="internal">
        <lane id=":B1_9_0" index="0" speed="3.65" length="1.44" shape="110.40,101.60 109.20,100.80"/>
    </edge>
    <edge id=":B1_22" function="internal">
        <lane id=":B1_22_0" index="0" speed="9.26" length="14.34" shape="105.44,100.89 105.15,100.85 101.40,98.60 99.15,94.85 98.40,89.60"/>
    </edge>
    <edge id=":B1_23" function="internal">
        <lane id=":B1_23_0" index="0" speed="3.65" length="3.23" shape="109.20,100.80 108.80,100.00 109.20,99.20 110.40,98.40"/>
    </edge>
    <edge id=":B1_10" function="internal">
        <lane id=":B1_10_0" index="0" speed="6.51" length="9.03" shape="104.80,89.60 105.15,92.05 106.20,93.80 107.95,94.85 110.40,95.20"/>
    </edge>
    <edge id=":B1_11" function="internal">
        <lane id=":B1_11_0" index="0" speed="13.89" length="20.80" shape="104.80,89.60 104.80,110.40"/>
        <lane id=":B1_11_1" index="1" speed="13.89" length="20.80" shape="101.60,89.60 101.60,110.40"/>
    </edge>
    <edge id=":B1_13" function="internal">
        <lane id=":B1_13_0" index="0" speed="9.26" length="5.01" shape="101.60,89.60 100.89,94.56"/>
    </edge>
    <edge id=":B1_14" function="internal">
        <lane id=":B1_14_0" index="0" speed="3.65" length="1.44" shape="101.60,89.60 100.80,90.80"/>
    </edge>
    <edge id=":B1_24" function="internal">
        <lane id=":B1_24_0" index="0" speed="9.26" length="14.34" shape="100.89,94.56 100.85,94.85 98.60,98.60 94.85,100.85 89.60,101.60"/>
    </edge>
    <edge id=":B1_25" function="internal">
        <lane id=":B1_25_0" index="0" speed="3.65" length="3.23" shape="100.80,90.80 100.00,91.20 99.20,90.80 98.40,89.60"/>
    </edge>
    <edge id=":B1_15" function="internal">
        <lane id=":B1_15_0" index="0" speed="6.51" length="9.03" shape="89.60,95.20 92.05,94.85 93.80,93.80 94.85,92.05 95.20,89.60"/>
    </edge>
    <edge id=":B1_16" function="internal">
        <lane id=":B1_16_0" index="0" speed="13.89" length="20.80" shape="89.60,95.20 110.40,95.20"/>
        <lane id=":B1_16_1" index="1" speed="13.89" length="20.80" shape="89.60,98.40 110.40,98.40"/>
    </edge>
    <edge id=":B1_18" function="internal">
        <lane id=":B1_18_0" index="0" speed="9.26" length="5.01" shape="89.60,98.40 94.56,99.11"/>
    </edge>
    <edge id=":B1_19" function="internal">
        <lane id=":B1_19_0" index="0" speed="3.65" length="1.44" shape="89.60,98.40 90.80,99.20"/>
    </edge>
    <edge id=":B1_26" function="internal">
        <lane id=":B1_26_0" index="0" speed="9.26" length="14.34" shape="94.56,99.11 94.85,99.15 98.60,101.40 100.85,105.15 101.60,110.40"/>
    </edge>
    <edge id=":B1_27" function="internal">
        <lane id=":B1_27_0" index="0" speed="3.65" length="3.23" shape="90.80,99.20 91.20,100.00 90.80,100.80 89.60,101.60"/>
    </edge>
    <edge id=":B2_0" function="internal">
        <lane id=":B2_0_0" index="0" speed="3.65" length="4.67" shape="101.60,200.00 100.80,201.20 100.00,201.60 99.20,201.20 98.40,200.00"/>
    </edge>
    <edge id=":C1_0" function="internal">
        <lane id=":C1_0_0" index="0" speed="3.65" length="4.67" shape="200.00,98.40 201.20,99.20 201.60,100.00 201.20,100.80 200.00,101.60"/>
    </edge>

    <edge id="A1B1" from="A1" to="B1" priority="-1">
        <lane id="A1B1_0" index="0" speed="13.89" length="89.60" shape="0.00,95.20 89.60,95.20"/>
        <lane id="A1B1_1" index="1" speed="13.89" length="89.60" shape="0.00,98.40 89.60,98.40"/>
    </edge>
    <edge id="B0B1" from="B0" to="B1" priority="-1">
        <lane id="B0B1_0" index="0" speed="13.89" length="89.60" shape="104.80,0.00 104.80,89.60"/>
        <lane id="B0B1_1" index="1" speed="13.89" length="89.60" shape="101.60,0.00 101.60,89.60"/>
    </edge>
    <edge id="B1A1" from="B1" to="A1" priority="-1">
        <lane id="B1A1_0" index="0" speed="13.89" length="89.60" shape="89.60,104.80 0.00,104.80"/>
        <lane id="B1A1_1" index="1" speed="13.89" length="89.60" shape="89.60,101.60 0.00,101.60"/>
    </edge>
    <edge id="B1B0" from="B1" to="B0" priority="-1">
        <lane id="B1B0_0" index="0" speed="13.89" length="89.60" shape="95.20,89.60 95.20,0.00"/>
        <lane id="B1B0_1" index="1" speed="13.89" length="89.60" shape="98.40,89.60 98.40,0.00"/>
    </edge>
    <edge id="B1B2" from="B1" to="B2" priority="-1">
        <lane id="B1B2_0" index="0" speed="13.89" length="89.60" shape="104.80,110.40 104.80,200.00"/>
        <lane id="B1B2_1" index="1" speed="13.89" length="89.60" shape="101.60,110.40 101.60,200.00"/>
    </edge>
    <edge id="B1C1" from="B1" to="C1" priority="-1">
        <lane id="B1C1_0" index="0" speed="13.89" length="89.60" shape="110.40,95.20 200.00,95.20"/>
        <lane id="B1C1_1" index="1" speed="13.89" length="89.60" shape="110.40,98.40 200.00,98.40"/>
    </edge>
    <edge id="B2B1" from="B2" to="B1" priority="-1">
        <lane id="B2B1_0" index="0" speed="13.89" length="89.60" shape="95.20,200.00 95.20,110.40"/>
        <lane id="B2B1_1" index="1" speed="13.89" length="89.60" shape="98.40,200.00 98.40,110.40"/>
    </edge>
    <edge id="C1B1" from="C1" to="B1" priority="-1">
        <lane id="C1B1_0" index="0" speed="13.89" length="89.60" shape="200.00,104.80 110.40,104.80"/>
        <lane id="C1B1_1" index="1" speed="13.89" length="89.60" shape="200.00,101.60 110.40,101.60"/>
    </edge>

    <tlLogic id="B1" type="static" programID="0" offset="0">
        <phase duration="42" state="GGGggrrrrrGGGggrrrrr"/>
        <phase duration="3"  state="yyyyyrrrrryyyyyrrrrr"/>
        <phase duration="42" state="rrrrrGGGggrrrrrGGGgg"/>
        <phase duration="3"  state="rrrrryyyyyrrrrryyyyy"/>
    </tlLogic>

    <junction id="A1" type="priority" x="0.00" y="100.00" incLanes="B1A1_0 B1A1_1" intLanes=":A1_0_0" shape="0.00,100.00 0.00,106.40 0.00,100.00">
        <request index="0" response="0" foes="0" cont="0"/>
    </junction>
    <junction id="B0" type="priority" x="100.00" y="0.00" incLanes="B1B0_0 B1B0_1" intLanes=":B0_0_0" shape="100.00,0.00 93.60,0.00 100.00,0.00">
        <request index="0" response="0" foes="0" cont="0"/>
    </junction>
    <junction id="B1" type="traffic_light" x="100.00" y="100.00" incLanes="B2B1_0 B2B1_1 C1B1_0 C1B1_1 B0B1_0 B0B1_1 A1B1_0 A1B1_1" intLanes=":B1_0_0 :B1_1_0 :B1_1_1 :B1_20_0 :B1_21_0 :B1_5_0 :B1_6_0 :B1_6_1 :B1_22_0 :B1_23_0 :B1_10_0 :B1_11_0 :B1_11_1 :B1_24_0 :B1_25_0 :B1_15_0 :B1_16_0 :B1_16_1 :B1_26_0 :B1_27_0" shape="93.60,110.40 106.40,110.40 106.84,108.18 107.40,107.40 108.18,106.84 109.18,106.51 110.40,106.40 110.40,93.60 108.18,93.16 107.40,92.60 106.84,91.82 106.51,90.82 106.40,89.60 93.60,89.60 93.16,91.82 92.60,92.60 91.82,93.16 90.82,93.49 89.60,93.60 89.60,106.40 91.82,106.84 92.60,107.40 93.16,108.18 93.49,109.18">
        <request index="0"  response="00000000000000000000" foes="00000000000011000000" cont="0"/>
        <request index="1"  response="01000000000100000000" foes="01111110000111000000" cont="0"/>
        <request index="2"  response="01000000000100000000" foes="01111110000111000000" cont="0"/>
        <request index="3"  response="01000001100100000000" foes="01110001101111000000" cont="1"/>
        <request index="4"  response="01000001100000000000" foes="01000001100000000000" cont="1"/>
        <request index="5"  response="00000001100000000000" foes="00000001100000000000" cont="0"/>
        <request index="6"  response="00000011100000001111" foes="11000011100000001111" cont="0"/>
        <request index="7"  response="00000011100000001111" foes="11000011100000001111" cont="0"/>
        <request index="8"  response="00110011100000001110" foes="00110111100000001110" cont="1"/>
        <request index="9"  response="00110000000000001000" foes="00110000000000001000" cont="1"/>
        <request index="10" response="00000000000000000000" foes="00110000000000000000" cont="0"/>
        <request index="11" response="01000000000100000000" foes="01110000000111111000" cont="0"/>
        <request index="12" response="01000000000100000000" foes="01110000000111111000" cont="0"/>
        <request index="13" response="01000000000100000110" foes="11110000000111000110" cont="1"/>
        <request index="14" response="00000000000100000110" foes="00000000000100000110" cont="1"/>
        <request index="15" response="00000000000000000110" foes="00000000000000000110" cont="0"/>
        <request index="16" response="00000011110000001110" foes="00000011111100001110" cont="0"/>
        <request index="17" response="00000011110000001110" foes="00000011111100001110" cont="0"/>
        <request index="18" response="00000011100011001110" foes="00000011100011011110" cont="1"/>
        <request index="19" response="00000010000011000000" foes="00000010000011000000" cont="1"/>
    </junction>
    <junction id="B2" type="priority" x="100.00" y="200.00" incLanes="B1B2_0 B1B2_1" intLanes=":B2_0_0" shape="100.00,200.00 106.40,200.00 100.00,200.00">
        <request index="0" response="0" foes="0" cont="0"/>
    </junction>
    <junction id="C1" type="priority" x="200.00" y="100.00" incLanes="B1C1_0 B1C1_1" intLanes=":C1_0_0" shape="200.00,100.00 200.00,93.60 200.00,100.00">
        <request index="0" response="0" foes="0" cont="0"/>
    </junction>

    <junction id=":B1_20_0" type="internal" x="99.11" y="105.44" incLanes=":B1_3_0 B0B1_0 B0B1_1" intLanes=":B1_6_0 :B1_6_1 :B1_8_0 :B1_9_0 :B1_10_0 :B1_11_0 :B1_11_1 :B1_16_0 :B1_16_1 :B1_18_0"/>
    <junction id=":B1_21_0" type="internal" x="99.20" y="109.20" incLanes=":B1_4_0 A1B1_1 B0B1_0 B0B1_1 C1B1_0" intLanes=":B1_5_0 :B1_11_0 :B1_11_1 :B1_18_0"/>
    <junction id=":B1_22_0" type="internal" x="105.44" y="100.89" incLanes=":B1_8_0 A1B1_0 A1B1_1" intLanes=":B1_1_0 :B1_1_1 :B1_3_0 :B1_11_0 :B1_11_1 :B1_13_0 :B1_14_0 :B1_15_0 :B1_16_0 :B1_16_1"/>
    <junction id=":B1_23_0" type="internal" x="109.20" y="100.80" incLanes=":B1_9_0 A1B1_0 A1B1_1 B0B1_0 B2B1_1" intLanes=":B1_3_0 :B1_10_0 :B1_16_0 :B1_16_1"/>
    <junction id=":B1_24_0" type="internal" x="100.89" y="94.56" incLanes=":B1_13_0 B2B1_0 B2B1_1" intLanes=":B1_0_0 :B1_1_0 :B1_1_1 :B1_6_0 :B1_6_1 :B1_8_0 :B1_16_0 :B1_16_1 :B1_18_0 :B1_19_0"/>
    <junction id=":B1_25_0" type="internal" x="100.80" y="90.80" incLanes=":B1_14_0 A1B1_0 B2B1_0 B2B1_1 C1B1_1" intLanes=":B1_1_0 :B1_1_1 :B1_8_0 :B1_15_0"/>
    <junction id=":B1_26_0" type="internal" x="94.56" y="99.11" incLanes=":B1_18_0 C1B1_0 C1B1_1" intLanes=":B1_1_0 :B1_1_1 :B1_3_0 :B1_4_0 :B1_5_0 :B1_6_0 :B1_6_1 :B1_11_0 :B1_11_1 :B1_13_0"/>
    <junction id=":B1_27_0" type="internal" x="90.80" y="99.20" incLanes=":B1_19_0 B0B1_1 B2B1_0 C1B1_0 C1B1_1" intLanes=":B1_0_0 :B1_6_0 :B1_6_1 :B1_13_0"/>

    <connection from="A1B1" to="B1B0" fromLane="0" toLane="0" via=":B1_15_0" tl="B1" linkIndex="15" dir="r" state="o"/>
    <connection from="A1B1" to="B1C1" fromLane="0" toLane="0" via=":B1_16_0" tl="B1" linkIndex="16" dir="s" state="o"/>
    <connection from="A1B1" to="B1C1" fromLane="1" toLane="1" via=":B1_16_1" tl="B1" linkIndex="17" dir="s" state="o"/>
    <connection from="A1B1" to="B1B2" fromLane="1" toLane="1" via=":B1_18_0" tl="B1" linkIndex="18" dir="l" state="o"/>
    <connection from="A1B1" to="B1A1" fromLane="1" toLane="1" via=":B1_19_0" tl="B1" linkIndex="19" dir="t" state="o"/>
    <connection from="B0B1" to="B1C1" fromLane="0" toLane="0" via=":B1_10_0" tl="B1" linkIndex="10" dir="r" state="O"/>
    <connection from="B0B1" to="B1B2" fromLane="0" toLane="0" via=":B1_11_0" tl="B1" linkIndex="11" dir="s" state="O"/>
    <connection from="B0B1" to="B1B2" fromLane="1" toLane="1" via=":B1_11_1" tl="B1" linkIndex="12" dir="s" state="O"/>
    <connection from="B0B1" to="B1A1" fromLane="1" toLane="1" via=":B1_13_0" tl="B1" linkIndex="13" dir="l" state="o"/>
    <connection from="B0B1" to="B1B0" fromLane="1" toLane="1" via=":B1_14_0" tl="B1" linkIndex="14" dir="t" state="o"/>
    <connection from="B1A1" to="A1B1" fromLane="1" toLane="1" via=":A1_0_0" dir="t" state="M"/>
    <connection from="B1B0" to="B0B1" fromLane="1" toLane="1" via=":B0_0_0" dir="t" state="M"/>
    <connection from="B1B2" to="B2B1" fromLane="1" toLane="1" via=":B2_0_0" dir="t" state="M"/>
    <connection from="B1C1" to="C1B1" fromLane="1" toLane="1" via=":C1_0_0" dir="t" state="M"/>
    <connection from="B2B1" to="B1A1" fromLane="0" toLane="0" via=":B1_0_0" tl="B1" linkIndex="0" dir="r" state="O"/>
    <connection from="B2B1" to="B1B0" fromLane="0" toLane="0" via=":B1_1_0" tl="B1" linkIndex="1" dir="s" state="O"/>
    <connection from="B2B1" to="B1B0" fromLane="1" toLane="1" via=":B1_1_1" tl="B1" linkIndex="2" dir="s" state="O"/>
    <connection from="B2B1" to="B1C1" fromLane="1" toLane="1" via=":B1_3_0" tl="B1" linkIndex="3" dir="l" state="o"/>
    <connection from="B2B1" to="B1B2" fromLane="1" toLane="1" via=":B1_4_0" tl="B1" linkIndex="4" dir="t" state="o"/>
    <connection from="C1B1" to="B1B2" fromLane="0" toLane="0" via=":B1_5_0" tl="B1" linkIndex="5" dir="r" state="o"/>
    <connection from="C1B1" to="B1A1" fromLane="0" toLane="0" via=":B1_6_0" tl="B1" linkIndex="6" dir="s" state="o"/>
    <connection from="C1B1" to="B1A1" fromLane="1" toLane="1" via=":B1_6_1" tl="B1" linkIndex="7" dir="s" state="o"/>
    <connection from="C1B1" to="B1B0" fromLane="1" toLane="1" via=":B1_8_0" tl="B1" linkIndex="8" dir="l" state="o"/>
    <connection from="C1B1" to="B1C1" fromLane="1" toLane="1" via=":B1_9_0" tl="B1" linkIndex="9" dir="t" state="o"/>

    <connection from=":A1_0" to="A1B1" fromLane="0" toLane="1" dir="t" state="M"/>
    <connection from=":B0_0" to="B0B1" fromLane="0" toLane="1" dir="t" state="M"/>
    <connection from=":B1_0" to="B1A1" fromLane="0" toLane="0" dir="r" state="M"/>
    <connection from=":B1_1" to="B1B0" fromLane="0" toLane="0" dir="s" state="M"/>
    <connection from=":B1_1" to="B1B0" fromLane="1" toLane="1" dir="s" state="M"/>
    <connection from=":B1_3" to="B1C1" fromLane="0" toLane="1" via=":B1_20_0" dir="l" state="m"/>
    <connection from=":B1_20" to="B1C1" fromLane="0" toLane="1" dir="l" state="M"/>
    <connection from=":B1_4" to="B1B2" fromLane="0" toLane="1" via=":B1_21_0" dir="t" state="m"/>
    <connection from=":B1_21" to="B1B2" fromLane="0" toLane="1" dir="t" state="M"/>
    <connection from=":B1_5" to="B1B2" fromLane="0" toLane="0" dir="r" state="M"/>
    <connection from=":B1_6" to="B1A1" fromLane="0" toLane="0" dir="s" state="M"/>
    <connection from=":B1_6" to="B1A1" fromLane="1" toLane="1" dir="s" state="M"/>
    <connection from=":B1_8" to="B1B0" fromLane="0" toLane="1" via=":B1_22_0" dir="l" state="m"/>
    <connection from=":B1_22" to="B1B0" fromLane="0" toLane="1" dir="l" state="M"/>
    <connection from=":B1_9" to="B1C1" fromLane="0" toLane="1" via=":B1_23_0" dir="t" state="m"/>
    <connection from=":B1_23" to="B1C1" fromLane="0" toLane="1" dir="t" state="M"/>
    <connection from=":B1_10" to="B1C1" fromLane="0" toLane="0" dir="r" state="M"/>
    <connection from=":B1_11" to="B1B2" fromLane="0" toLane="0" dir="s" state="M"/>
    <connection from=":B1_11" to="B1B2" fromLane="1" toLane="1" dir="s" state="M"/>
    <connection from=":B1_13" to="B1A1" fromLane="0" toLane="1" via=":B1_24_0" dir="l" state="m"/>
    <connection from=":B1_24" to="B1A1" fromLane="0" toLane="1" dir="l" state="M"/>
    <connection from=":B1_14" to="B1B0" fromLane="0" toLane="1" via=":B1_25_0" dir="t" state="m"/>
    <connection from=":B1_25" to="B1B0" fromLane="0" toLane="1" dir="t" state="M"/>
    <connection from=":B1_15" to="B1B0" fromLane="0" toLane="0" dir="r" state="M"/>
    <connection from=":B1_16" to="B1C1" fromLane="0" toLane="0" dir="s" state="M"/>
    <connection from=":B1_16" to="B1C1" fromLane="1" toLane="1" dir="s" state="M"/>
    <connection from=":B1_18" to="B1B2" fromLane="0" toLane="1" via=":B1_26_0" dir="l" state="m"/>
    <connection from=":B1_26" to="B1B2" fromLane="0" toLane="1" dir="l" state="M"/>
    <connection from=":B1_19" to="B1A1" fromLane="0" toLane="1" via=":B1_27_0" dir="t" state="m"/>
    <connection from=":B1_27" to="B1A1" fromLane="0" toLane="1" dir="t" state="M"/>
    <connection from=":B2_0" to="B2B1" fromLane="0" toLane="1" dir="t" state="M"/>
    <connection from=":C1_0" to="C1B1" fromLane="0" toLane="1" dir="t" state="M"/>

</net>
