<?xml version="1.0" encoding="UTF-8"?>

<!-- generated on 2023-12-13 16:34:32 by Eclipse SUMO netedit Version 1.19.0
<configuration xmlns:xsi="http://www.w3.org/2001/XMLSchema-instance" xsi:noNamespaceSchemaLocation="http://sumo.dlr.de/xsd/neteditConfiguration.xsd">

    <input>
        <sumo-net-file value="C:\Users\Fumo\Desktop\Egyretem\Projekt\1w\1w.net.xml"/>
    </input>

    <output>
        <output-file value="C:\Users\Fumo\Desktop\Egyretem\Projekt\1w\1w.net.xml"/>
    </output>

    <processing>
        <geometry.min-radius.fix.railways value="false"/>
        <geometry.max-grade.fix value="false"/>
        <offset.disable-normalization value="true"/>
        <lefthand value="0"/>
    </processing>

    <junctions>
        <no-turnarounds value="true"/>
        <junctions.corner-detail value="5"/>
        <junctions.limit-turn-speed value="5.50"/>
        <rectangular-lane-cut value="0"/>
    </junctions>

    <pedestrian>
        <walkingareas value="0"/>
    </pedestrian>

</configuration>
-->

<net version="1.16" junctionCornerDetail="5" limitTurnSpeed="5.50" xmlns:xsi="http://www.w3.org/2001/XMLSchema-instance" xsi:noNamespaceSchemaLocation="http://sumo.dlr.de/xsd/net_file.xsd">

    <location netOffset="0.00,0.00" convBoundary="0.00,0.00,200.00,200.00" origBoundary="0.00,0.00,200.00,200.00" projParameter="!"/>

    <edge id=":A1_0" function="internal">
        <lane id=":A1_0_0" index="0" speed="3.65" length="4.67" shape="0.00,101.60 -1.20,100.80 -1.60,100.00 -1.20,99.20 0.00,98.40"/>
    </edge>
    <edge id=":B0_0" function="internal">
        <lane id=":B0_0_0" index="0" speed="3.65" length="4.67" shape="98.40,0.00 99.20,-1.20 100.00,-1.60 100.80,-1.20 101.60,0.00"/>
    </edge>
    <edge id=":B1_0" function="internal">
        <lane id=":B1_0_0" index="0" speed="6.51" length="9.03" shape="95.20,110.40 94.85,107.95 93.80,106.20 92.05,105.15 89.60,104.80"/>
    </edge>
    <edge id=":B1_1" function="internal">
        <lane id=":B1_1_0" index="0" speed="13.89" length="20.80" shape="95.20,110.40 95.20,89.60"/>
    </edge>
    <edge id=":B1_2" function="internal">
        <lane id=":B1_2_0" index="0" speed="9.26" length="10.42" shape="98.40,110.40 99.15,105.15 101.40,101.40 102.04,101.02"/>
    </edge>
    <edge id=":B1_12" function="internal">
        <lane id=":B1_12_0" index="0" speed="9.26" length="8.93" shape="102.04,101.02 105.15,99.15 110.40,98.40"/>
    </edge>
    <edge id=":B1_3" function="internal">
        <lane id=":B1_3_0" index="0" speed="6.51" length="9.03" shape="110.40,104.80 107.95,105.15 106.20,106.20 105.15,107.95 104.80,110.40"/>
    </edge>
    <edge id=":B1_4" function="internal">
        <lane id=":B1_4_0" index="0" speed="13.89" length="20.80" shape="110.40,104.80 89.60,104.80"/>
    </edge>
    <edge id=":B1_5" function="internal">
        <lane id=":B1_5_0" index="0" speed="9.26" length="10.42" shape="110.40,101.60 105.15,100.85 101.40,98.60 101.02,97.96"/>
    </edge>
    <edge id=":B1_13" function="internal">
        <lane id=":B1_13_0" index="0" speed="9.26" length="8.93" shape="101.02,97.96 99.15,94.85 98.40,89.60"/>
    </edge>
    <edge id=":B1_6" function="internal">
        <lane id=":B1_6_0" index="0" speed="6.51" length="9.03" shape="104.80,89.60 105.15,92.05 106.20,93.80 107.95,94.85 110.40,95.20"/>
    </edge>
    <edge id=":B1_7" function="internal">
        <lane id=":B1_7_0" index="0" speed="13.89" length="20.80" shape="104.80,89.60 104.80,110.40"/>
    </edge>
    <edge id=":B1_8" function="internal">
        <lane id=":B1_8_0" index="0" speed="9.26" length="10.42" shape="101.60,89.60 100.85,94.85 98.60,98.60 97.96,98.98"/>
    </edge>
    <edge id=":B1_14" function="internal">
        <lane id=":B1_14_0" index="0" speed="9.26" length="8.93" shape="97.96,98.98 94.85,100.85 89.60,101.60"/>
    </edge>
    <edge id=":B1_9" function="internal">
        <lane id=":B1_9_0" index="0" speed="6.51" length="9.03" shape="89.60,95.20 92.05,94.85 93.80,93.80 94.85,92.05 95.20,89.60"/>
    </edge>
    <edge id=":B1_10" function="internal">
        <lane id=":B1_10_0" index="0" speed="13.89" length="20.80" shape="89.60,95.20 110.40,95.20"/>
    </edge>
    <edge id=":B1_11" function="internal">
        <lane id=":B1_11_0" index="0" speed="9.26" length="10.42" shape="89.60,98.40 94.85,99.15 98.60,101.40 98.98,102.04"/>
    </edge>
    <edge id=":B1_15" function="internal">
        <lane id=":B1_15_0" index="0" speed="9.26" length="8.93" shape="98.98,102.04 100.85,105.15 101.60,110.40"/>
    </edge>
    <edge id=":B2_0" function="internal">
        <lane id=":B2_0_0" index="0" speed="3.65" length="4.67" shape="101.60,200.00 100.80,201.20 100.00,201.60 99.20,201.20 98.40,200.00"/>
    </edge>
    <edge id=":C1_0" function="internal">
        <lane id=":C1_0_0" index="0" speed="3.65" length="4.67" shape="200.00,98.40 201.20,99.20 201.60,100.00 201.20,100.80 200.00,101.60"/>
    </edge>

    <edge id="A1B1" from="A1" to="B1" priority="-1">
        <lane id="A1B1_0" index="0" speed="13.89" length="89.60" shape="0.00,95.20 89.60,95.20"/>
        <lane id="A1B1_1" index="1" speed="13.89" length="89.60" shape="0.00,98.40 89.60,98.40"/>
    </edge>
    <edge id="B0B1" from="B0" to="B1" priority="-1">
        <lane id="B0B1_0" index="0" speed="13.89" length="89.60" shape="104.80,0.00 104.80,89.60"/>
        <lane id="B0B1_1" index="1" speed="13.89" length="89.60" shape="101.60,0.00 101.60,89.60"/>
    </edge>
    <edge id="B1A1" from="B1" to="A1" priority="-1">
        <lane id="B1A1_0" index="0" speed="13.89" length="89.60" shape="89.60,104.80 0.00,104.80"/>
        <lane id="B1A1_1" index="1" speed="13.89" length="89.60" shape="89.60,101.60 0.00,101.60"/>
    </edge>
    <edge id="B1B0" from="B1" to="B0" priority="-1">
        <lane id="B1B0_0" index="0" speed="13.89" length="89.60" shape="95.20,89.60 95.20,0.00"/>
        <lane id="B1B0_1" index="1" speed="13.89" length="89.60" shape="98.40,89.60 98.40,0.00"/>
    </edge>
    <edge id="B1B2" from="B1" to="B2" priority="-1">
        <lane id="B1B2_0" index="0" speed="13.89" length="89.60" shape="104.80,110.40 104.80,200.00"/>
        <lane id="B1B2_1" index="1" speed="13.89" length="89.60" shape="101.60,110.40 101.60,200.00"/>
    </edge>
    <edge id="B1C1" from="B1" to="C1" priority="-1">
        <lane id="B1C1_0" index="0" speed="13.89" length="89.60" shape="110.40,95.20 200.00,95.20"/>
        <lane id="B1C1_1" index="1" speed="13.89" length="89.60" shape="110.40,98.40 200.00,98.40"/>
    </edge>
    <edge id="B2B1" from="B2" to="B1" priority="-1">
        <lane id="B2B1_0" index="0" speed="13.89" length="89.60" shape="95.20,200.00 95.20,110.40"/>
        <lane id="B2B1_1" index="1" speed="13.89" length="89.60" shape="98.40,200.00 98.40,110.40"/>
    </edge>
    <edge id="C1B1" from="C1" to="B1" priority="-1">
        <lane id="C1B1_0" index="0" speed="13.89" length="89.60" shape="200.00,104.80 110.40,104.80"/>
        <lane id="C1B1_1" index="1" speed="13.89" length="89.60" shape="200.00,101.60 110.40,101.60"/>
    </edge>

    <tlLogic id="B1" type="actuated" programID="0" offset="0">
        <phase duration="33" state="GGgrrrGGgrrr"/>
        <phase duration="3"  state="yygrrryygrrr"/>
        <phase duration="6"  state="rrGrrrrrGrrr"/>
        <phase duration="3"  state="rryrrrrryrrr"/>
        <phase duration="33" state="rrrGGgrrrGGg"/>
        <phase duration="3"  state="rrryygrrryyg"/>
        <phase duration="6"  state="rrrrrGrrrrrG"/>
        <phase duration="3"  state="rrrrryrrrrry"/>
    </tlLogic>

    <junction id="A1" type="priority" x="0.00" y="100.00" incLanes="B1A1_0 B1A1_1" intLanes=":A1_0_0" shape="0.00,100.00 0.00,106.40 0.00,100.00">
        <request index="0" response="0" foes="0" cont="0"/>
    </junction>
    <junction id="B0" type="priority" x="100.00" y="0.00" incLanes="B1B0_0 B1B0_1" intLanes=":B0_0_0" shape="100.00,0.00 93.60,0.00 100.00,0.00">
        <request index="0" response="0" foes="0" cont="0"/>
    </junction>
    <junction id="B1" type="traffic_light" x="100.00" y="100.00" incLanes="B2B1_0 B2B1_1 C1B1_0 C1B1_1 B0B1_0 B0B1_1 A1B1_0 A1B1_1" intLanes=":B1_0_0 :B1_1_0 :B1_12_0 :B1_3_0 :B1_4_0 :B1_13_0 :B1_6_0 :B1_7_0 :B1_14_0 :B1_9_0 :B1_10_0 :B1_15_0" shape="93.60,110.40 106.40,110.40 106.84,108.18 107.40,107.40 108.18,106.84 109.18,106.51 110.40,106.40 110.40,93.60 108.18,93.16 107.40,92.60 106.84,91.82 106.51,90.82 106.40,89.60 93.60,89.60 93.16,91.82 92.60,92.60 91.82,93.16 90.82,93.49 89.60,93.60 89.60,106.40 91.82,106.84 92.60,107.40 93.16,108.18 93.49,109.18">
        <request index="0"  response="000000000000" foes="000000010000" cont="0"/>
        <request index="1"  response="100000000000" foes="111100010000" cont="0"/>
        <request index="2"  response="100010100000" foes="100010110000" cont="1"/>
        <request index="3"  response="000010000000" foes="000010000000" cont="0"/>
        <request index="4"  response="000010000111" foes="100010000111" cont="0"/>
        <request index="5"  response="010110000100" foes="010110000100" cont="1"/>
        <request index="6"  response="000000000000" foes="010000000000" cont="0"/>
        <request index="7"  response="000000100000" foes="010000111100" cont="0"/>
        <request index="8"  response="100000100010" foes="110000100010" cont="1"/>
        <request index="9"  response="000000000010" foes="000000000010" cont="0"/>
        <request index="10" response="000111000010" foes="000111100010" cont="0"/>
        <request index="11" response="000100010110" foes="000100010110" cont="1"/>
    </junction>
    <junction id="B2" type="priority" x="100.00" y="200.00" incLanes="B1B2_0 B1B2_1" intLanes=":B2_0_0" shape="100.00,200.00 106.40,200.00 100.00,200.00">
        <request index="0" response="0" foes="0" cont="0"/>
    </junction>
    <junction id="C1" type="priority" x="200.00" y="100.00" incLanes="B1C1_0 B1C1_1" intLanes=":C1_0_0" shape="200.00,100.00 200.00,93.60 200.00,100.00">
        <request index="0" response="0" foes="0" cont="0"/>
    </junction>

    <junction id=":B1_12_0" type="internal" x="102.04" y="101.02" incLanes=":B1_2_0 B0B1_0" intLanes=":B1_4_0 :B1_5_0 :B1_6_0 :B1_7_0 :B1_10_0 :B1_11_0"/>
    <junction id=":B1_13_0" type="internal" x="101.02" y="97.96" incLanes=":B1_5_0 A1B1_0" intLanes=":B1_1_0 :B1_2_0 :B1_7_0 :B1_8_0 :B1_9_0 :B1_10_0"/>
    <junction id=":B1_14_0" type="internal" x="97.96" y="98.98" incLanes=":B1_8_0 B2B1_0" intLanes=":B1_0_0 :B1_1_0 :B1_4_0 :B1_5_0 :B1_10_0 :B1_11_0"/>
    <junction id=":B1_15_0" type="internal" x="98.98" y="102.04" incLanes=":B1_11_0 C1B1_0" intLanes=":B1_1_0 :B1_2_0 :B1_3_0 :B1_4_0 :B1_7_0 :B1_8_0"/>

    <connection from="A1B1" to="B1B0" fromLane="0" toLane="0" via=":B1_9_0" tl="B1" linkIndex="9" dir="r" state="o"/>
    <connection from="A1B1" to="B1C1" fromLane="0" toLane="0" via=":B1_10_0" tl="B1" linkIndex="10" dir="s" state="o"/>
    <connection from="A1B1" to="B1B2" fromLane="1" toLane="1" via=":B1_11_0" tl="B1" linkIndex="11" dir="l" state="o"/>
    <connection from="B0B1" to="B1C1" fromLane="0" toLane="0" via=":B1_6_0" tl="B1" linkIndex="6" dir="r" state="O"/>
    <connection from="B0B1" to="B1B2" fromLane="0" toLane="0" via=":B1_7_0" tl="B1" linkIndex="7" dir="s" state="O"/>
    <connection from="B0B1" to="B1A1" fromLane="1" toLane="1" via=":B1_8_0" tl="B1" linkIndex="8" dir="l" state="o"/>
    <connection from="B1A1" to="A1B1" fromLane="1" toLane="1" via=":A1_0_0" dir="t" state="M"/>
    <connection from="B1B0" to="B0B1" fromLane="1" toLane="1" via=":B0_0_0" dir="t" state="M"/>
    <connection from="B1B2" to="B2B1" fromLane="1" toLane="1" via=":B2_0_0" dir="t" state="M"/>
    <connection from="B1C1" to="C1B1" fromLane="1" toLane="1" via=":C1_0_0" dir="t" state="M"/>
    <connection from="B2B1" to="B1A1" fromLane="0" toLane="0" via=":B1_0_0" tl="B1" linkIndex="0" dir="r" state="O"/>
    <connection from="B2B1" to="B1B0" fromLane="0" toLane="0" via=":B1_1_0" tl="B1" linkIndex="1" dir="s" state="O"/>
    <connection from="B2B1" to="B1C1" fromLane="1" toLane="1" via=":B1_2_0" tl="B1" linkIndex="2" dir="l" state="o"/>
    <connection from="C1B1" to="B1B2" fromLane="0" toLane="0" via=":B1_3_0" tl="B1" linkIndex="3" dir="r" state="o"/>
    <connection from="C1B1" to="B1A1" fromLane="0" toLane="0" via=":B1_4_0" tl="B1" linkIndex="4" dir="s" state="o"/>
    <connection from="C1B1" to="B1B0" fromLane="1" toLane="1" via=":B1_5_0" tl="B1" linkIndex="5" dir="l" state="o"/>

    <connection from=":A1_0" to="A1B1" fromLane="0" toLane="1" dir="t" state="M"/>
    <connection from=":B0_0" to="B0B1" fromLane="0" toLane="1" dir="t" state="M"/>
    <connection from=":B1_0" to="B1A1" fromLane="0" toLane="0" dir="r" state="M"/>
    <connection from=":B1_1" to="B1B0" fromLane="0" toLane="0" dir="s" state="M"/>
    <connection from=":B1_2" to="B1C1" fromLane="0" toLane="1" via=":B1_12_0" dir="l" state="m"/>
    <connection from=":B1_12" to="B1C1" fromLane="0" toLane="1" dir="l" state="M"/>
    <connection from=":B1_3" to="B1B2" fromLane="0" toLane="0" dir="r" state="M"/>
    <connection from=":B1_4" to="B1A1" fromLane="0" toLane="0" dir="s" state="M"/>
    <connection from=":B1_5" to="B1B0" fromLane="0" toLane="1" via=":B1_13_0" dir="l" state="m"/>
    <connection from=":B1_13" to="B1B0" fromLane="0" toLane="1" dir="l" state="M"/>
    <connection from=":B1_6" to="B1C1" fromLane="0" toLane="0" dir="r" state="M"/>
    <connection from=":B1_7" to="B1B2" fromLane="0" toLane="0" dir="s" state="M"/>
    <connection from=":B1_8" to="B1A1" fromLane="0" toLane="1" via=":B1_14_0" dir="l" state="m"/>
    <connection from=":B1_14" to="B1A1" fromLane="0" toLane="1" dir="l" state="M"/>
    <connection from=":B1_9" to="B1B0" fromLane="0" toLane="0" dir="r" state="M"/>
    <connection from=":B1_10" to="B1C1" fromLane="0" toLane="0" dir="s" state="M"/>
    <connection from=":B1_11" to="B1B2" fromLane="0" toLane="1" via=":B1_15_0" dir="l" state="m"/>
    <connection from=":B1_15" to="B1B2" fromLane="0" toLane="1" dir="l" state="M"/>
    <connection from=":B2_0" to="B2B1" fromLane="0" toLane="1" dir="t" state="M"/>
    <connection from=":C1_0" to="C1B1" fromLane="0" toLane="1" dir="t" state="M"/>

</net>
