<?xml version="1.0" encoding="UTF-8"?>

<!-- generated on 2023-12-13 13:37:20 by Eclipse SUMO GUI Version 1.19.0
-->

<configuration xmlns:xsi="http://www.w3.org/2001/XMLSchema-instance" xsi:noNamespaceSchemaLocation="http://sumo.dlr.de/xsd/sumoConfiguration.xsd">

    <input>
        <net-file value="1w.net.xml"/>
        <route-files value="1w_all.rou.xml"/>
    </input>

</configuration>
