<?xml version="1.0" encoding="UTF-8"?>

<!-- generated on 2023-11-22 15:40:48 by Eclipse SUMO netedit Version 1.18.0
<configuration xmlns:xsi="http://www.w3.org/2001/XMLSchema-instance" xsi:noNamespaceSchemaLocation="http://sumo.dlr.de/xsd/neteditConfiguration.xsd">

    <input>
        <sumocfg-file value="C:\Users\hecto\Desktop\AAU Project\basic_2lane.sumocfg"/>
        <additional-files value=""/>
        <route-files value="C:\Users\hecto\Desktop\AAU Project\basic_2lane.rou.xml"/>
        <sumo-net-file value="C:\Users\hecto\Desktop\AAU Project\basic_2lane.net.xml"/>
    </input>

    <output>
        <output-file value="C:\Users\hecto\Desktop\AAU Project\basic_2lane.net.xml"/>
    </output>

    <processing>
        <geometry.min-radius.fix.railways value="false"/>
        <geometry.max-grade.fix value="false"/>
        <offset.disable-normalization value="true"/>
        <lefthand value="0"/>
    </processing>

    <junctions>
        <no-turnarounds value="true"/>
        <junctions.corner-detail value="5"/>
        <junctions.limit-turn-speed value="5.50"/>
        <rectangular-lane-cut value="0"/>
    </junctions>

    <pedestrian>
        <walkingareas value="0"/>
    </pedestrian>

</configuration>
-->

<net version="1.16" junctionCornerDetail="5" limitTurnSpeed="5.50" xmlns:xsi="http://www.w3.org/2001/XMLSchema-instance" xsi:noNamespaceSchemaLocation="http://sumo.dlr.de/xsd/net_file.xsd">

    <location netOffset="0.00,0.00" convBoundary="-43.82,-21.25,153.37,124.09" origBoundary="-10000000000.00,-10000000000.00,10000000000.00,10000000000.00" projParameter="!"/>

    <edge id=":J4_0" function="internal">
        <lane id=":J4_0_0" index="0" speed="6.51" length="9.03" shape="38.78,58.29 38.43,55.84 37.38,54.09 35.63,53.04 33.18,52.69"/>
        <lane id=":J4_0_1" index="1" speed="7.33" length="11.73" shape="38.78,58.29 38.43,54.44 37.38,51.69 35.63,50.04 33.18,49.49"/>
    </edge>
    <edge id=":J4_2" function="internal">
        <lane id=":J4_2_0" index="0" speed="13.89" length="20.80" shape="38.78,58.29 38.78,37.49"/>
    </edge>
    <edge id=":J4_3" function="internal">
        <lane id=":J4_3_0" index="0" speed="9.26" length="10.42" shape="41.98,58.29 42.73,53.04 44.98,49.29 45.62,48.91"/>
    </edge>
    <edge id=":J4_16" function="internal">
        <lane id=":J4_16_0" index="0" speed="9.26" length="8.93" shape="45.62,48.91 48.73,47.04 53.98,46.29"/>
    </edge>
    <edge id=":J4_4" function="internal">
        <lane id=":J4_4_0" index="0" speed="6.51" length="9.03" shape="53.98,52.69 51.53,53.04 49.78,54.09 48.73,55.84 48.38,58.29"/>
        <lane id=":J4_4_1" index="1" speed="7.33" length="11.73" shape="53.98,52.69 50.13,53.04 47.38,54.09 45.73,55.84 45.18,58.29"/>
    </edge>
    <edge id=":J4_6" function="internal">
        <lane id=":J4_6_0" index="0" speed="13.89" length="20.80" shape="53.98,52.69 33.18,52.69"/>
    </edge>
    <edge id=":J4_7" function="internal">
        <lane id=":J4_7_0" index="0" speed="9.26" length="10.42" shape="53.98,49.49 48.73,48.74 44.98,46.49 44.60,45.85"/>
    </edge>
    <edge id=":J4_17" function="internal">
        <lane id=":J4_17_0" index="0" speed="9.26" length="8.93" shape="44.60,45.85 42.73,42.74 41.98,37.49"/>
    </edge>
    <edge id=":J4_8" function="internal">
        <lane id=":J4_8_0" index="0" speed="6.51" length="9.03" shape="48.38,37.49 48.73,39.94 49.78,41.69 51.53,42.74 53.98,43.09"/>
        <lane id=":J4_8_1" index="1" speed="7.33" length="11.73" shape="48.38,37.49 48.73,41.34 49.78,44.09 51.53,45.74 53.98,46.29"/>
    </edge>
    <edge id=":J4_10" function="internal">
        <lane id=":J4_10_0" index="0" speed="13.89" length="20.80" shape="48.38,37.49 48.38,58.29"/>
    </edge>
    <edge id=":J4_11" function="internal">
        <lane id=":J4_11_0" index="0" speed="9.26" length="10.42" shape="45.18,37.49 44.43,42.74 42.18,46.49 41.54,46.87"/>
    </edge>
    <edge id=":J4_18" function="internal">
        <lane id=":J4_18_0" index="0" speed="9.26" length="8.93" shape="41.54,46.87 38.43,48.74 33.18,49.49"/>
    </edge>
    <edge id=":J4_12" function="internal">
        <lane id=":J4_12_0" index="0" speed="6.51" length="9.03" shape="33.18,43.09 35.63,42.74 37.38,41.69 38.43,39.94 38.78,37.49"/>
        <lane id=":J4_12_1" index="1" speed="7.33" length="11.73" shape="33.18,43.09 37.03,42.74 39.78,41.69 41.43,39.94 41.98,37.49"/>
    </edge>
    <edge id=":J4_14" function="internal">
        <lane id=":J4_14_0" index="0" speed="13.89" length="20.80" shape="33.18,43.09 53.98,43.09"/>
    </edge>
    <edge id=":J4_15" function="internal">
        <lane id=":J4_15_0" index="0" speed="9.26" length="10.42" shape="33.18,46.29 38.43,47.04 42.18,49.29 42.56,49.93"/>
    </edge>
    <edge id=":J4_19" function="internal">
        <lane id=":J4_19_0" index="0" speed="9.26" length="8.93" shape="42.56,49.93 44.43,53.04 45.18,58.29"/>
    </edge>

    <edge id="-E1" from="J3" to="J4" priority="-1" length="200.00">
        <lane id="-E1_0" index="0" speed="13.89" length="200.00" shape="38.78,124.09 38.78,58.29"/>
        <lane id="-E1_1" index="1" speed="13.89" length="200.00" shape="41.98,124.09 41.98,58.29"/>
    </edge>
    <edge id="-E4" from="J4" to="J7" priority="-1" length="200.00">
        <lane id="-E4_0" index="0" speed="13.89" length="200.00" shape="53.98,43.09 153.37,43.09"/>
        <lane id="-E4_1" index="1" speed="13.89" length="200.00" shape="53.98,46.29 153.37,46.29"/>
    </edge>
    <edge id="-E5" from="J4" to="J8" priority="-1" length="200.00">
        <lane id="-E5_0" index="0" speed="13.89" length="200.00" shape="38.78,37.49 38.78,-21.25"/>
        <lane id="-E5_1" index="1" speed="13.89" length="200.00" shape="41.98,37.49 41.98,-21.25"/>
    </edge>
    <edge id="-E6" from="J9" to="J4" priority="-1" length="200.00">
        <lane id="-E6_0" index="0" speed="13.89" length="200.00" shape="-43.82,43.09 33.18,43.09"/>
        <lane id="-E6_1" index="1" speed="13.89" length="200.00" shape="-43.82,46.29 33.18,46.29"/>
    </edge>
    <edge id="E1" from="J4" to="J3" priority="-1" length="200.00">
        <lane id="E1_0" index="0" speed="13.89" length="200.00" shape="48.38,58.29 48.38,124.09"/>
        <lane id="E1_1" index="1" speed="13.89" length="200.00" shape="45.18,58.29 45.18,124.09"/>
    </edge>
    <edge id="E4" from="J7" to="J4" priority="-1" length="200.00">
        <lane id="E4_0" index="0" speed="13.89" length="200.00" shape="153.37,52.69 53.98,52.69"/>
        <lane id="E4_1" index="1" speed="13.89" length="200.00" shape="153.37,49.49 53.98,49.49"/>
    </edge>
    <edge id="E5" from="J8" to="J4" priority="-1" length="200.00">
        <lane id="E5_0" index="0" speed="13.89" length="200.00" shape="48.38,-21.25 48.38,37.49"/>
        <lane id="E5_1" index="1" speed="13.89" length="200.00" shape="45.18,-21.25 45.18,37.49"/>
    </edge>
    <edge id="E6" from="J4" to="J9" priority="-1" length="200.00">
        <lane id="E6_0" index="0" speed="13.89" length="200.00" shape="33.18,52.69 -43.82,52.69"/>
        <lane id="E6_1" index="1" speed="13.89" length="200.00" shape="33.18,49.49 -43.82,49.49"/>
    </edge>

    <tlLogic id="J4" type="actuated" programID="0" offset="0">
        <phase duration="33" state="GGGgrrrrGGGgrrrr" minDur="5" maxDur="50"/>
        <phase duration="3"  state="yyygrrrryyygrrrr"/>
        <phase duration="6"  state="rrrGrrrrrrrGrrrr" minDur="5" maxDur="50"/>
        <phase duration="3"  state="rrryrrrrrrryrrrr"/>
        <phase duration="33" state="rrrrGGGgrrrrGGGg" minDur="5" maxDur="50"/>
        <phase duration="3"  state="rrrryyygrrrryyyg"/>
        <phase duration="6"  state="rrrrrrrGrrrrrrrG" minDur="5" maxDur="50"/>
        <phase duration="3"  state="rrrrrrryrrrrrrry"/>
    </tlLogic>

    <junction id="J3" type="dead_end" x="43.58" y="124.09" incLanes="E1_0 E1_1" intLanes="" shape="43.58,124.09 49.98,124.09 43.58,124.09"/>
    <junction id="J4" type="traffic_light" x="43.58" y="47.89" incLanes="-E1_0 -E1_1 E4_0 E4_1 E5_0 E5_1 -E6_0 -E6_1" intLanes=":J4_0_0 :J4_0_1 :J4_2_0 :J4_16_0 :J4_4_0 :J4_4_1 :J4_6_0 :J4_17_0 :J4_8_0 :J4_8_1 :J4_10_0 :J4_18_0 :J4_12_0 :J4_12_1 :J4_14_0 :J4_19_0" shape="37.18,58.29 49.98,58.29 50.42,56.07 50.98,55.29 51.76,54.73 52.76,54.40 53.98,54.29 53.98,41.49 51.76,41.05 50.98,40.49 50.42,39.71 50.09,38.71 49.98,37.49 37.18,37.49 36.74,39.71 36.18,40.49 35.40,41.05 34.40,41.38 33.18,41.49 33.18,54.29 35.40,54.73 36.18,55.29 36.74,56.07 37.07,57.07">
        <request index="0"  response="0000000000000000" foes="0000100001000000" cont="0"/>
        <request index="1"  response="0000000000000000" foes="0000100001000000" cont="0"/>
        <request index="2"  response="1000000000000000" foes="1111100001000000" cont="0"/>
        <request index="3"  response="1000011110000000" foes="1000011111000000" cont="1"/>
        <request index="4"  response="0000010000000000" foes="1000010000000000" cont="0"/>
        <request index="5"  response="0000010000000000" foes="1000010000000000" cont="0"/>
        <request index="6"  response="0000010000001111" foes="1000010000001111" cont="0"/>
        <request index="7"  response="0111110000001000" foes="0111110000001000" cont="1"/>
        <request index="8"  response="0000000000000000" foes="0100000000001000" cont="0"/>
        <request index="9"  response="0000000000000000" foes="0100000000001000" cont="0"/>
        <request index="10" response="0000000010000000" foes="0100000011111000" cont="0"/>
        <request index="11" response="1000000010000111" foes="1100000010000111" cont="1"/>
        <request index="12" response="0000000000000100" foes="0000000010000100" cont="0"/>
        <request index="13" response="0000000000000100" foes="0000000010000100" cont="0"/>
        <request index="14" response="0000111100000100" foes="0000111110000100" cont="0"/>
        <request index="15" response="0000100001111100" foes="0000100001111100" cont="1"/>
    </junction>
    <junction id="J7" type="dead_end" x="153.37" y="47.89" incLanes="-E4_0 -E4_1" intLanes="" shape="153.37,47.89 153.37,41.49 153.37,47.89"/>
    <junction id="J8" type="dead_end" x="43.58" y="-21.25" incLanes="-E5_0 -E5_1" intLanes="" shape="43.58,-21.25 37.18,-21.25 43.58,-21.25"/>
    <junction id="J9" type="dead_end" x="-43.82" y="47.89" incLanes="E6_0 E6_1" intLanes="" shape="-43.82,47.89 -43.82,54.29 -43.82,47.89"/>

    <junction id=":J4_16_0" type="internal" x="45.62" y="48.91" incLanes=":J4_3_0 E5_0" intLanes=":J4_6_0 :J4_7_0 :J4_8_0 :J4_8_1 :J4_10_0 :J4_14_0 :J4_15_0"/>
    <junction id=":J4_17_0" type="internal" x="44.60" y="45.85" incLanes=":J4_7_0 -E6_0" intLanes=":J4_2_0 :J4_3_0 :J4_10_0 :J4_11_0 :J4_12_0 :J4_12_1 :J4_14_0"/>
    <junction id=":J4_18_0" type="internal" x="41.54" y="46.87" incLanes=":J4_11_0 -E1_0" intLanes=":J4_0_0 :J4_0_1 :J4_2_0 :J4_6_0 :J4_7_0 :J4_14_0 :J4_15_0"/>
    <junction id=":J4_19_0" type="internal" x="42.56" y="49.93" incLanes=":J4_15_0 E4_0" intLanes=":J4_2_0 :J4_3_0 :J4_4_0 :J4_4_1 :J4_6_0 :J4_10_0 :J4_11_0"/>

    <connection from="-E1" to="E6" fromLane="0" toLane="0" via=":J4_0_0" tl="J4" linkIndex="0" dir="r" state="O"/>
    <connection from="-E1" to="E6" fromLane="0" toLane="1" via=":J4_0_1" tl="J4" linkIndex="1" dir="r" state="O"/>
    <connection from="-E1" to="-E5" fromLane="0" toLane="0" via=":J4_2_0" tl="J4" linkIndex="2" dir="s" state="O"/>
    <connection from="-E1" to="-E4" fromLane="1" toLane="1" via=":J4_3_0" tl="J4" linkIndex="3" dir="l" state="o"/>
    <connection from="-E6" to="-E5" fromLane="0" toLane="0" via=":J4_12_0" tl="J4" linkIndex="12" dir="r" state="o"/>
    <connection from="-E6" to="-E5" fromLane="0" toLane="1" via=":J4_12_1" tl="J4" linkIndex="13" dir="r" state="o"/>
    <connection from="-E6" to="-E4" fromLane="0" toLane="0" via=":J4_14_0" tl="J4" linkIndex="14" dir="s" state="o"/>
    <connection from="-E6" to="E1" fromLane="1" toLane="1" via=":J4_15_0" tl="J4" linkIndex="15" dir="l" state="o"/>
    <connection from="E4" to="E1" fromLane="0" toLane="0" via=":J4_4_0" tl="J4" linkIndex="4" dir="r" state="o"/>
    <connection from="E4" to="E1" fromLane="0" toLane="1" via=":J4_4_1" tl="J4" linkIndex="5" dir="r" state="o"/>
    <connection from="E4" to="E6" fromLane="0" toLane="0" via=":J4_6_0" tl="J4" linkIndex="6" dir="s" state="o"/>
    <connection from="E4" to="-E5" fromLane="1" toLane="1" via=":J4_7_0" tl="J4" linkIndex="7" dir="l" state="o"/>
    <connection from="E5" to="-E4" fromLane="0" toLane="0" via=":J4_8_0" tl="J4" linkIndex="8" dir="r" state="O"/>
    <connection from="E5" to="-E4" fromLane="0" toLane="1" via=":J4_8_1" tl="J4" linkIndex="9" dir="r" state="O"/>
    <connection from="E5" to="E1" fromLane="0" toLane="0" via=":J4_10_0" tl="J4" linkIndex="10" dir="s" state="O"/>
    <connection from="E5" to="E6" fromLane="1" toLane="1" via=":J4_11_0" tl="J4" linkIndex="11" dir="l" state="o"/>

    <connection from=":J4_0" to="E6" fromLane="0" toLane="0" dir="r" state="M"/>
    <connection from=":J4_0" to="E6" fromLane="1" toLane="1" dir="r" state="M"/>
    <connection from=":J4_2" to="-E5" fromLane="0" toLane="0" dir="s" state="M"/>
    <connection from=":J4_3" to="-E4" fromLane="0" toLane="1" via=":J4_16_0" dir="l" state="m"/>
    <connection from=":J4_16" to="-E4" fromLane="0" toLane="1" dir="l" state="M"/>
    <connection from=":J4_4" to="E1" fromLane="0" toLane="0" dir="r" state="M"/>
    <connection from=":J4_4" to="E1" fromLane="1" toLane="1" dir="r" state="M"/>
    <connection from=":J4_6" to="E6" fromLane="0" toLane="0" dir="s" state="M"/>
    <connection from=":J4_7" to="-E5" fromLane="0" toLane="1" via=":J4_17_0" dir="l" state="m"/>
    <connection from=":J4_17" to="-E5" fromLane="0" toLane="1" dir="l" state="M"/>
    <connection from=":J4_8" to="-E4" fromLane="0" toLane="0" dir="r" state="M"/>
    <connection from=":J4_8" to="-E4" fromLane="1" toLane="1" dir="r" state="M"/>
    <connection from=":J4_10" to="E1" fromLane="0" toLane="0" dir="s" state="M"/>
    <connection from=":J4_11" to="E6" fromLane="0" toLane="1" via=":J4_18_0" dir="l" state="m"/>
    <connection from=":J4_18" to="E6" fromLane="0" toLane="1" dir="l" state="M"/>
    <connection from=":J4_12" to="-E5" fromLane="0" toLane="0" dir="r" state="M"/>
    <connection from=":J4_12" to="-E5" fromLane="1" toLane="1" dir="r" state="M"/>
    <connection from=":J4_14" to="-E4" fromLane="0" toLane="0" dir="s" state="M"/>
    <connection from=":J4_15" to="E1" fromLane="0" toLane="1" via=":J4_19_0" dir="l" state="m"/>
    <connection from=":J4_19" to="E1" fromLane="0" toLane="1" dir="l" state="M"/>

</net>
