<?xml version="1.0" encoding="UTF-8"?>

<!-- generated on 2023-11-22 15:40:15 by Eclipse SUMO netedit Version 1.18.0
-->

<routes xmlns:xsi="http://www.w3.org/2001/XMLSchema-instance" xsi:noNamespaceSchemaLocation="http://sumo.dlr.de/xsd/routes_file.xsd">
    <!-- Routes -->
    <route id="r_0" edges="E5 E1"/>
    <route id="r_1" edges="E5 -E4"/>
    <route id="r_10" edges="-E6 -E5"/>
    <route id="r_11" edges="-E6 E1"/>
    <route id="r_2" edges="E5 E6"/>
    <route id="r_3" edges="E4 E6"/>
    <route id="r_4" edges="E4 E1"/>
    <route id="r_5" edges="E4 -E5"/>
    <route id="r_6" edges="-E1 -E5"/>
    <route id="r_7" edges="-E1 E6"/>
    <route id="r_8" edges="-E1 -E4"/>
    <route id="r_9" edges="-E6 -E4"/>
    <!-- Vehicles, persons and containers (sorted by depart) -->
    <flow id="f_0" begin="0.00" from="-E6" to="-E4" end="3600.00" period="exp(0.20)"/>
    <flow id="f_1" begin="0.00" from="E4" to="E6" end="3600.00" period="exp(0.20)"/>
    <flow id="f_10" begin="0.00" from="E5" to="E6" end="3600.00" period="exp(0.05)"/>
    <flow id="f_11" begin="0.00" from="-E1" to="-E4" end="3600.00" period="exp(0.05)"/>
    <flow id="f_2" begin="0.00" from="-E6" to="-E5" end="3600.00" period="exp(0.15)"/>
    <flow id="f_3" begin="0.00" from="E4" to="E1" end="3600.00" period="exp(0.15)"/>
    <flow id="f_4" begin="0.00" from="-E1" to="-E5" end="3600.00" period="exp(0.15)"/>
    <flow id="f_5" begin="0.00" from="E5" to="E1" end="3600.00" period="exp(0.15)"/>
    <flow id="f_6" begin="0.00" from="-E1" to="E6" end="3600.00" period="exp(0.10)"/>
    <flow id="f_7" begin="0.00" from="E5" to="-E4" end="3600.00" period="exp(0.10)"/>
    <flow id="f_8" begin="0.00" from="E4" to="-E5" end="3600.00" period="exp(0.10)"/>
    <flow id="f_9" begin="0.00" from="-E6" to="E1" end="3600.00" period="exp(0.10)"/>
</routes>
