<?xml version="1.0" encoding="UTF-8"?>

<!-- generated on 2023-11-17 10:36:01 by Eclipse SUMO netedit Version 1.18.0
-->

<routes xmlns:xsi="http://www.w3.org/2001/XMLSchema-instance" xsi:noNamespaceSchemaLocation="http://sumo.dlr.de/xsd/routes_file.xsd">
    <!-- Routes -->
    <route id="r_0" edges="E4 E1"/>
    <route id="r_1" edges="E4 E6"/>
    <route id="r_10" edges="-E6 E1"/>
    <route id="r_11" edges="E6"/>
    <route id="r_12" edges="-E6 -E5"/>
    <route id="r_13" edges="E5 E1"/>
    <route id="r_14" edges="-E5"/>
    <route id="r_15" edges="E5 E6"/>
    <route id="r_16" edges="E5 -E4"/>
    <route id="r_2" edges="E4 E6"/>
    <route id="r_3" edges="E4 -E5"/>
    <route id="r_4" edges="-E1 E6"/>
    <route id="r_5" edges="-E1 -E5"/>
    <route id="r_6" edges="-E1 -E4"/>
    <route id="r_7" edges="E6"/>
    <route id="r_8" edges="-E6 -E4"/>
    <route id="r_9" edges="E6"/>
    <!-- Vehicles, persons and containers (sorted by depart) -->
    <flow id="f_0" begin="0.00" route="r_13" end="3600.00" period="exp(0.50)"/>
    <flow id="f_1" begin="0.00" route="r_16" end="3600.00" period="exp(0.50)"/>
    <flow id="f_10" begin="0.00" route="r_10" end="3600.00" period="exp(0.15)"/>
    <flow id="f_11" begin="0.00" route="r_3" end="3600.00" period="exp(0.15)"/>
    <flow id="f_2" begin="0.00" route="r_5" end="3600.00" period="exp(0.50)"/>
    <flow id="f_3" begin="0.00" route="r_4" end="3600.00" period="exp(0.50)"/>
    <flow id="f_4" begin="0.00" route="r_15" end="3600.00" period="exp(0.15)"/>
    <flow id="f_5" begin="0.00" route="r_6" end="3600.00" period="exp(0.15)"/>
    <flow id="f_6" begin="0.00" route="r_8" end="3600.00" period="exp(0.30)"/>
    <flow id="f_7" begin="0.00" route="r_2" end="3600.00" period="exp(0.30)"/>
    <flow id="f_8" begin="0.00" route="r_0" end="3600.00" period="exp(0.30)"/>
    <flow id="f_9" begin="0.00" route="r_12" end="3600.00" period="exp(0.30)"/>
</routes>
