<?xml version="1.0" encoding="UTF-8"?>

<!-- generated on 2023-11-22 15:40:48 by Eclipse SUMO sumo Version 1.18.0
-->

<configuration xmlns:xsi="http://www.w3.org/2001/XMLSchema-instance" xsi:noNamespaceSchemaLocation="http://sumo.dlr.de/xsd/sumoConfiguration.xsd">

    <input>
        <net-file value="basic_2lane.net.xml"/>
        <route-files value="basic_2lane.rou.xml"/>
    </input>

</configuration>
