<?xml version="1.0" encoding="UTF-8"?>

<!-- generated on 2023-11-06 15:31:54 by Eclipse SUMO netedit Version 1.18.0
-->

<routes xmlns:xsi="http://www.w3.org/2001/XMLSchema-instance" xsi:noNamespaceSchemaLocation="http://sumo.dlr.de/xsd/routes_file.xsd">
    <!-- Routes -->
<routeDistribution id="ways">
    <route id="r_0" edges="C1C2 C2C3" probability="50"/>
    <route id="r_1" edges="C1C2 C2D2" probability="25"/>
    <route id="r_10" edges="B2C2 C2C1" probability="5"/>
    <route id="r_11" edges="B2C2 C2C3" probability="20"/>
    <route id="r_2" edges="C1C2 C2B2" probability="15"/>
    <route id="r_3" edges="D2C2 C2B2" probability="15"/>
    <route id="r_4" edges="D2C2 C2C3" probability="25"/>
    <route id="r_5" edges="D2C2 C2C1" probability="5"/>
    <route id="r_6" edges="C3C2 C2C1" probability="10"/>
    <route id="r_7" edges="C3C2 C2B2" probability="15"/>
    <route id="r_8" edges="C3C2 C2D2" probability="5"/>
    <route id="r_9" edges="B2C2 C2D2" probability="5"/>
</routeDistribution>
    <!-- Vehicles, persons and containers (sorted by depart) -->
    <flow id="f_0" begin="0.00" route="ways" end="3600.00" vehsPerHour="3600.00"/>
</routes>
