<?xml version="1.0" encoding="UTF-8"?>

<!-- generated on 2023-11-23 23:21:48 by Eclipse SUMO netedit Version 1.18.0
<configuration xmlns:xsi="http://www.w3.org/2001/XMLSchema-instance" xsi:noNamespaceSchemaLocation="http://sumo.dlr.de/xsd/neteditConfiguration.xsd">

    <input>
        <sumocfg-file value="C:\Users\hecto\Desktop\AAU Project\Networks\simple1.sumocfg"/>
        <route-files value="C:\Users\hecto\Desktop\AAU Project\Networks\simple1.rou.xml"/>
        <sumo-net-file value="C:\Users\hecto\Desktop\AAU Project\Networks\simple1.net.xml"/>
    </input>

    <output>
        <output-file value="C:\Users\hecto\Desktop\AAU Project\Networks\simple1.net.xml"/>
    </output>

    <processing>
        <offset.disable-normalization value="true"/>
    </processing>

    <junctions>
        <no-turnarounds value="true"/>
    </junctions>

    <netedit>
        <new-network value="false"/>
    </netedit>

</configuration>
-->

<net version="1.16" junctionCornerDetail="5" limitTurnSpeed="5.50" xmlns:xsi="http://www.w3.org/2001/XMLSchema-instance" xsi:noNamespaceSchemaLocation="http://sumo.dlr.de/xsd/net_file.xsd">

    <location netOffset="0.00,0.00" convBoundary="-30.12,-1.19,96.59,92.93" origBoundary="10000000000.00,10000000000.00,-10000000000.00,-10000000000.00" projParameter="!"/>

    <edge id=":J1_0" function="internal">
        <lane id=":J1_0_0" index="0" speed="6.51" length="9.03" shape="24.71,54.06 24.36,51.61 23.31,49.86 21.56,48.81 19.11,48.46"/>
    </edge>
    <edge id=":J1_1" function="internal">
        <lane id=":J1_1_0" index="0" speed="13.89" length="20.80" shape="24.71,54.06 24.71,33.26"/>
    </edge>
    <edge id=":J1_2" function="internal">
        <lane id=":J1_2_0" index="0" speed="9.26" length="10.42" shape="27.91,54.06 28.66,48.81 30.91,45.06 31.55,44.67"/>
    </edge>
    <edge id=":J1_12" function="internal">
        <lane id=":J1_12_0" index="0" speed="9.26" length="8.93" shape="31.55,44.67 34.66,42.81 39.91,42.06"/>
    </edge>
    <edge id=":J1_3" function="internal">
        <lane id=":J1_3_0" index="0" speed="6.51" length="9.03" shape="39.91,48.46 37.46,48.81 35.71,49.86 34.66,51.61 34.31,54.06"/>
    </edge>
    <edge id=":J1_4" function="internal">
        <lane id=":J1_4_0" index="0" speed="13.89" length="20.80" shape="39.91,48.46 19.11,48.46"/>
    </edge>
    <edge id=":J1_5" function="internal">
        <lane id=":J1_5_0" index="0" speed="9.26" length="10.42" shape="39.91,45.26 34.66,44.51 30.91,42.26 30.53,41.62"/>
    </edge>
    <edge id=":J1_13" function="internal">
        <lane id=":J1_13_0" index="0" speed="9.26" length="8.93" shape="30.53,41.62 28.66,38.51 27.91,33.26"/>
    </edge>
    <edge id=":J1_6" function="internal">
        <lane id=":J1_6_0" index="0" speed="6.51" length="9.03" shape="34.31,33.26 34.66,35.71 35.71,37.46 37.46,38.51 39.91,38.86"/>
    </edge>
    <edge id=":J1_7" function="internal">
        <lane id=":J1_7_0" index="0" speed="13.89" length="20.80" shape="34.31,33.26 34.31,54.06"/>
    </edge>
    <edge id=":J1_8" function="internal">
        <lane id=":J1_8_0" index="0" speed="9.26" length="10.42" shape="31.11,33.26 30.36,38.51 28.11,42.26 27.47,42.64"/>
    </edge>
    <edge id=":J1_14" function="internal">
        <lane id=":J1_14_0" index="0" speed="9.26" length="8.93" shape="27.47,42.64 24.36,44.51 19.11,45.26"/>
    </edge>
    <edge id=":J1_9" function="internal">
        <lane id=":J1_9_0" index="0" speed="6.51" length="9.04" shape="19.11,38.86 21.56,38.51 23.31,37.46 24.36,35.71 24.71,33.26"/>
    </edge>
    <edge id=":J1_10" function="internal">
        <lane id=":J1_10_0" index="0" speed="13.89" length="20.80" shape="19.11,38.86 39.91,38.86"/>
    </edge>
    <edge id=":J1_11" function="internal">
        <lane id=":J1_11_0" index="0" speed="9.26" length="10.42" shape="19.11,42.06 24.36,42.81 28.11,45.06 28.50,45.70"/>
    </edge>
    <edge id=":J1_15" function="internal">
        <lane id=":J1_15_0" index="0" speed="9.26" length="8.93" shape="28.50,45.70 30.36,48.81 31.11,54.06"/>
    </edge>

    <edge id="-E0" from="J1" to="J0" priority="-1" length="200.00">
        <lane id="-E0_0" index="0" speed="13.89" length="200.00" shape="34.31,54.06 34.31,92.93"/>
        <lane id="-E0_1" index="1" speed="13.89" length="200.00" shape="31.11,54.06 31.11,92.93"/>
    </edge>
    <edge id="-E1" from="J2" to="J1" priority="-1" length="200.00">
        <lane id="-E1_0" index="0" speed="13.89" length="200.00" shape="-30.12,38.86 19.11,38.86"/>
        <lane id="-E1_1" index="1" speed="13.89" length="200.00" shape="-30.12,42.06 19.11,42.06"/>
    </edge>
    <edge id="-E2" from="J3" to="J1" priority="-1" length="200.00">
        <lane id="-E2_0" index="0" speed="13.89" length="200.00" shape="96.59,48.46 39.91,48.46"/>
        <lane id="-E2_1" index="1" speed="13.89" length="200.00" shape="96.59,45.26 39.91,45.26"/>
    </edge>
    <edge id="-E3" from="J4" to="J1" priority="-1" length="200.00">
        <lane id="-E3_0" index="0" speed="13.89" length="200.00" shape="34.32,-1.18 34.31,33.26"/>
        <lane id="-E3_1" index="1" speed="13.89" length="200.00" shape="31.12,-1.18 31.11,33.26"/>
    </edge>
    <edge id="E0" from="J0" to="J1" priority="-1" length="200.00">
        <lane id="E0_0" index="0" speed="13.89" length="200.00" shape="24.71,92.93 24.71,54.06"/>
        <lane id="E0_1" index="1" speed="13.89" length="200.00" shape="27.91,92.93 27.91,54.06"/>
    </edge>
    <edge id="E1" from="J1" to="J2" priority="-1" length="200.00">
        <lane id="E1_0" index="0" speed="13.89" length="200.00" shape="19.11,48.46 -30.12,48.46"/>
        <lane id="E1_1" index="1" speed="13.89" length="200.00" shape="19.11,45.26 -30.12,45.26"/>
    </edge>
    <edge id="E2" from="J1" to="J3" priority="-1" length="200.00">
        <lane id="E2_0" index="0" speed="13.89" length="200.00" shape="39.91,38.86 96.59,38.86"/>
        <lane id="E2_1" index="1" speed="13.89" length="200.00" shape="39.91,42.06 96.59,42.06"/>
    </edge>
    <edge id="E3" from="J1" to="J4" priority="-1" length="200.00">
        <lane id="E3_0" index="0" speed="13.89" length="200.00" shape="24.71,33.26 24.72,-1.19"/>
        <lane id="E3_1" index="1" speed="13.89" length="200.00" shape="27.91,33.26 27.92,-1.19"/>
    </edge>

    <tlLogic id="J1" type="actuated" programID="0" offset="0">
        <phase duration="33" state="rrrGGgrrrGGg" minDur="5" maxDur="50"/>
        <phase duration="3"  state="rrryygrrryyg"/>
        <phase duration="6"  state="rrrrrGrrrrrG" minDur="5" maxDur="50"/>
        <phase duration="3"  state="rrrrryrrrrry"/>
        <phase duration="33" state="GGgrrrGGgrrr" minDur="5" maxDur="50"/>
        <phase duration="3"  state="yygrrryygrrr"/>
        <phase duration="6"  state="rrGrrrrrGrrr" minDur="5" maxDur="50"/>
        <phase duration="3"  state="rryrrrrryrrr"/>
    </tlLogic>

    <junction id="J0" type="dead_end" x="29.51" y="92.93" incLanes="-E0_0 -E0_1" intLanes="" shape="29.51,92.93 35.91,92.93 29.51,92.93"/>
    <junction id="J1" type="traffic_light" x="29.51" y="43.66" incLanes="E0_0 E0_1 -E2_0 -E2_1 -E3_0 -E3_1 -E1_0 -E1_1" intLanes=":J1_0_0 :J1_1_0 :J1_12_0 :J1_3_0 :J1_4_0 :J1_13_0 :J1_6_0 :J1_7_0 :J1_14_0 :J1_9_0 :J1_10_0 :J1_15_0" shape="23.11,54.06 35.91,54.06 36.36,51.84 36.91,51.06 37.69,50.50 38.69,50.17 39.91,50.06 39.91,37.26 37.69,36.81 36.91,36.26 36.36,35.48 36.03,34.48 35.91,33.26 23.11,33.26 22.67,35.48 22.11,36.26 21.34,36.81 20.33,37.15 19.11,37.26 19.11,50.06 21.33,50.50 22.11,51.06 22.67,51.84 23.00,52.84">
        <request index="0"  response="000000010000" foes="000000010000" cont="0"/>
        <request index="1"  response="111000010000" foes="111100010000" cont="0"/>
        <request index="2"  response="100010110000" foes="100010110000" cont="1"/>
        <request index="3"  response="000000000000" foes="000010000000" cont="0"/>
        <request index="4"  response="000000000100" foes="100010000111" cont="0"/>
        <request index="5"  response="010100000100" foes="010110000100" cont="1"/>
        <request index="6"  response="010000000000" foes="010000000000" cont="0"/>
        <request index="7"  response="010000111000" foes="010000111100" cont="0"/>
        <request index="8"  response="110000100010" foes="110000100010" cont="1"/>
        <request index="9"  response="000000000000" foes="000000000010" cont="0"/>
        <request index="10" response="000100000000" foes="000111100010" cont="0"/>
        <request index="11" response="000100010100" foes="000100010110" cont="1"/>
    </junction>
    <junction id="J2" type="dead_end" x="-30.12" y="43.66" incLanes="E1_0 E1_1" intLanes="" shape="-30.12,43.66 -30.12,50.06 -30.12,43.66"/>
    <junction id="J3" type="dead_end" x="96.59" y="43.66" incLanes="E2_0 E2_1" intLanes="" shape="96.59,43.66 96.59,37.26 96.59,43.66"/>
    <junction id="J4" type="dead_end" x="29.52" y="-1.19" incLanes="E3_0 E3_1" intLanes="" shape="29.52,-1.19 23.12,-1.19 29.52,-1.19"/>

    <junction id=":J1_12_0" type="internal" x="31.55" y="44.67" incLanes=":J1_2_0 -E3_0" intLanes=":J1_4_0 :J1_5_0 :J1_6_0 :J1_7_0 :J1_10_0 :J1_11_0"/>
    <junction id=":J1_13_0" type="internal" x="30.53" y="41.62" incLanes=":J1_5_0 -E1_0" intLanes=":J1_1_0 :J1_2_0 :J1_7_0 :J1_8_0 :J1_9_0 :J1_10_0"/>
    <junction id=":J1_14_0" type="internal" x="27.47" y="42.64" incLanes=":J1_8_0 E0_0" intLanes=":J1_0_0 :J1_1_0 :J1_4_0 :J1_5_0 :J1_10_0 :J1_11_0"/>
    <junction id=":J1_15_0" type="internal" x="28.50" y="45.70" incLanes=":J1_11_0 -E2_0" intLanes=":J1_1_0 :J1_2_0 :J1_3_0 :J1_4_0 :J1_7_0 :J1_8_0"/>

    <connection from="-E1" to="E3" fromLane="0" toLane="0" via=":J1_9_0" tl="J1" linkIndex="9" dir="r" state="O"/>
    <connection from="-E1" to="E2" fromLane="0" toLane="0" via=":J1_10_0" tl="J1" linkIndex="10" dir="s" state="O"/>
    <connection from="-E1" to="-E0" fromLane="1" toLane="1" via=":J1_11_0" tl="J1" linkIndex="11" dir="l" state="o"/>
    <connection from="-E2" to="-E0" fromLane="0" toLane="0" via=":J1_3_0" tl="J1" linkIndex="3" dir="r" state="O"/>
    <connection from="-E2" to="E1" fromLane="0" toLane="0" via=":J1_4_0" tl="J1" linkIndex="4" dir="s" state="O"/>
    <connection from="-E2" to="E3" fromLane="1" toLane="1" via=":J1_5_0" tl="J1" linkIndex="5" dir="l" state="o"/>
    <connection from="-E3" to="E2" fromLane="0" toLane="0" via=":J1_6_0" tl="J1" linkIndex="6" dir="r" state="o"/>
    <connection from="-E3" to="-E0" fromLane="0" toLane="0" via=":J1_7_0" tl="J1" linkIndex="7" dir="s" state="o"/>
    <connection from="-E3" to="E1" fromLane="1" toLane="1" via=":J1_8_0" tl="J1" linkIndex="8" dir="l" state="o"/>
    <connection from="E0" to="E1" fromLane="0" toLane="0" via=":J1_0_0" tl="J1" linkIndex="0" dir="r" state="o"/>
    <connection from="E0" to="E3" fromLane="0" toLane="0" via=":J1_1_0" tl="J1" linkIndex="1" dir="s" state="o"/>
    <connection from="E0" to="E2" fromLane="1" toLane="1" via=":J1_2_0" tl="J1" linkIndex="2" dir="l" state="o"/>

    <connection from=":J1_0" to="E1" fromLane="0" toLane="0" dir="r" state="M"/>
    <connection from=":J1_1" to="E3" fromLane="0" toLane="0" dir="s" state="M"/>
    <connection from=":J1_2" to="E2" fromLane="0" toLane="1" via=":J1_12_0" dir="l" state="m"/>
    <connection from=":J1_12" to="E2" fromLane="0" toLane="1" dir="l" state="M"/>
    <connection from=":J1_3" to="-E0" fromLane="0" toLane="0" dir="r" state="M"/>
    <connection from=":J1_4" to="E1" fromLane="0" toLane="0" dir="s" state="M"/>
    <connection from=":J1_5" to="E3" fromLane="0" toLane="1" via=":J1_13_0" dir="l" state="m"/>
    <connection from=":J1_13" to="E3" fromLane="0" toLane="1" dir="l" state="M"/>
    <connection from=":J1_6" to="E2" fromLane="0" toLane="0" dir="r" state="M"/>
    <connection from=":J1_7" to="-E0" fromLane="0" toLane="0" dir="s" state="M"/>
    <connection from=":J1_8" to="E1" fromLane="0" toLane="1" via=":J1_14_0" dir="l" state="m"/>
    <connection from=":J1_14" to="E1" fromLane="0" toLane="1" dir="l" state="M"/>
    <connection from=":J1_9" to="E3" fromLane="0" toLane="0" dir="r" state="M"/>
    <connection from=":J1_10" to="E2" fromLane="0" toLane="0" dir="s" state="M"/>
    <connection from=":J1_11" to="-E0" fromLane="0" toLane="1" via=":J1_15_0" dir="l" state="m"/>
    <connection from=":J1_15" to="-E0" fromLane="0" toLane="1" dir="l" state="M"/>

</net>
