<?xml version="1.0" encoding="UTF-8"?>

<!-- generated on 2023-11-12 20:52:44 by Eclipse SUMO netedit Version 1.18.0
-->

<routes xmlns:xsi="http://www.w3.org/2001/XMLSchema-instance" xsi:noNamespaceSchemaLocation="http://sumo.dlr.de/xsd/routes_file.xsd">
    <!-- Routes -->
<routeDistribution id="ways">
    <route id="r_0" edges="E0D0 D0C0 C0C1 C1C2 C2C3 C3C4 C4B4 B4A4" probability="0.50"/>
    <route id="r_1" edges="E0D0 D0C0 C0C1 C1C2 C2C3 C3C4 C4D4 D4E4" probability="0.50"/>
    <route id="r_10" edges="E0D0 D0C0 C0C1 C1C2 C2D2 D2E2 E2E3" probability="0.5"/>
    <route id="r_11" edges="E0D0 D0C0 C0C1 C1C2 C2D2 D2D3 D3E3 E3E4" probability="0.15"/>
    <route id="r_12" edges="E0D0 D0C0 C0C1 C1C2 C2D2 D2D3 D3D4 D4E4" probability="0.20"/>
    <route id="r_13" edges="E0D0 D0C0 C0C1 C1C2 C2D2 D2D1" probability="0.5"/>
    <route id="r_14" edges="E0D0 D0C0 C0C1 C1C2 C2B2 B2A2 A2A1" probability="0.25"/>
    <route id="r_15" edges="E0D0 D0C0 C0C1 C1C2 C2B2 B2B3 B3B4 B4A4" probability="0.25"/>
    <route id="r_16" edges="E0D0 D0C0 C0C1 C1C2 C2B2 B2B3 B3A3 A3A4" probability="0.20"/>
    <route id="r_17" edges="E0D0 D0C0 C0C1 C1C2 C2B2 B2A2 A2A3" probability="0.25"/>
    <route id="r_18" edges="E0D0 D0C0 C0C1 C1D1 D1D2 D2D3 D3D4 D4E4" probability="0.20"/>
    <route id="r_19" edges="E0D0 D0C0 C0C1 C1D1 D1D2 D2D3 D3E3 E3E2" probability="0.5"/>
    <route id="r_2" edges="A0B0 B0C0 C0C1 C1C2 C2C3 C3C4 C4B4 B4A4" probability="0.40"/>
    <route id="r_20" edges="E0D0 D0C0 C0C1 C1D1 D1D2 D2E2 E2E1" probability="0.5"/>
    <route id="r_21" edges="E0D0 D0C0 C0C1 C1B1 B1A1 A1A2" probability="0.15"/>
    <route id="r_22" edges="E0D0 D0C0 C0C1 C1B1 B1B2 B2A2 A2A3" probability="0.15"/>
    <route id="r_23" edges="E0D0 D0C0 C0C1 C1B1 B1B2 B2B3 B3A3 A3A4" probability="0.20"/>
    <route id="r_24" edges="E0D0 D0C0 C0C1 C1B1 B1B2 B2B3 B3B4 B4A4" probability="0.25"/>
    <route id="r_25" edges="E0D0 D0C0 C0C1 C1B1 B1B2 B2B3 B3C3 C3C4 C4D4 D4E4" probability="0.10"/>
    <route id="r_26" edges="E0D0 D0C0 C0C1 C1B1 B1B0" probability="0.5"/>
    <route id="r_27" edges="E0D0 D0D1 D1D2 D2D3 D3D4 D4E4" probability="0.5"/>
    <route id="r_28" edges="E0D0 D0D1 D1D2 D2E2 E2E3" probability="0.10"/>
    <route id="r_29" edges="E0D0 D0D1 D1E1 E1E2" probability="0.5"/>
    <route id="r_3" edges="A0B0 B0C0 C0C1 C1C2 C2C3 C3C4 C4D4 D4E4" probability="0.30"/>
    <route id="r_30" edges="E0D0 D0D1 D1D2 D2D3 D3C3 C3C4 C4B4" probability="0.20"/>
    <route id="r_31" edges="E0D0 D0D1 D1C1 C1B1 B1A1 A1A2" probability="0.5"/>
    <route id="r_32" edges="E0D0 D0D1 D1C1 C1C2 C2B2 B2A2 A2A3" probability="0.15"/>
    <route id="r_33" edges="E0D0 D0D1 D1D2 D2C2 C2C3 C3B3 B3B4 B4A4" probability="0.15"/>
    <route id="r_34" edges="E0D0 D0D1 D1D2 D2C2 C2C3 C3D3" probability="0.10"/>
    <route id="r_35" edges="A0B0 B0B1 B1C1 C1D1 D1E1" probability="0.15"/>
    <route id="r_36" edges="A0B0 B0B1 B1B2 B2B3 B3B4 B4C4 C4D4 D4E4" probability="0.15"/>
    <route id="r_4" edges="E0D0 D0C0 C0C1 C1C2 C2C3 C3D3 D3E3 E3E4" probability="0.25"/>
    <route id="r_5" edges="E0D0 D0C0 C0C1 C1C2 C2C3 C3D3 D3D4 D4E4" probability="0.20"/>
    <route id="r_6" edges="E0D0 D0C0 C0C1 C1C2 C2C3 C3D3 D3D4 D4C4 C4B4 B4A4" probability="0.10"/>
    <route id="r_7" edges="E0D0 D0C0 C0C1 C1C2 C2C3 C3B3 B3A3 A3A2" probability="0.20"/>
    <route id="r_8" edges="E0D0 D0C0 C0C1 C1C2 C2C3 C3B3 B3B4 B4A4" probability="0.50"/>
    <route id="r_9" edges="A0B0 B0C0 C0C1 C1C2 C2C3 C3D3 D3E3 E3E4" probability="0.35"/>
</routeDistribution>
<routeDistribution id="ways1">
    <route id="r_0" edges="A4B4 B4B3 B3B2 B2B1 B1A1 A1A0" probability="0.15"/>
    <route id="r_1" edges="A4B4 B4B3 B3B2 B2B1 B1B0 B0C0" probability="0.20"/>
    <route id="r_10" edges="D4C4 C4C3 C3C2 C2B2 B2A2 A2A1" probability="0.20"/>
    <route id="r_11" edges="D4C4 C4C3 C3B3 B3A3 A3A2" probability="0.20"/>
    <route id="r_12" edges="D4C4 C4C3 C3D3 D3D2 D2D1 D1E1 E1E0" probability="0.5"/>
    <route id="r_13" edges="D4C4 C4C3 C3C2 C2C1 C1B1 B1B0 B0A0" probability="0.20"/>
    <route id="r_14" edges="E4D4 D4D3 D3C3 C3C2 C2C1 C1B1 B1A1 A1A2" probability="0.15"/>
    <route id="r_15" edges="E4D4 D4D3 D3D2 D2C2 C2C1 C1C0 C0D0" probability="0.10"/>
    <route id="r_16" edges="A4B4 B4B3 B3C3 C3C2 C2C1 C1C0 C0D0" probability="0.50"/>
    <route id="r_2" edges="A4B4 B4B3 B3B2 B2B1 B1C1 C1D1 D1E1" probability="0.20"/>
    <route id="r_3" edges="B4C4 C4C3 C3C2 C2C1 C1C0 C0D0 D0E0" probability="0.40"/>
    <route id="r_4" edges="B4C4 C4C3 C3C2 C2B2 B2A2 A2A3" probability="0.10"/>
    <route id="r_5" edges="B4C4 C4C3 C3C2 C2C1 C1B1 B1B0 B0A0" probability="0.50"/>
    <route id="r_6" edges="B4C4 C4C3 C3C2 C2C1 C1D1 D1D0 D0E0" probability="0.30"/>
    <route id="r_7" edges="B4C4 C4C3 C3C2 C2D2 D2E2 E2E3" probability="0.15"/>
    <route id="r_8" edges="B4C4 C4C3 C3C2 C2D2 D2D1 D1D0 D0E0" probability="0.15"/>
    <route id="r_9" edges="B4C4 C4C3 C3C2 C2D2 D2D1 D1E1" probability="0.15"/>
</routeDistribution>
<routeDistribution id="ways2">
<route id="r_0" edges="A3B3 B3C3 C3D3 D3E3 E3E2" probability="0.10"/>
    <route id="r_1" edges="A3B3 B3B4 B4C4 C4D4 D4D3" probability="0.15"/>
    <route id="r_10" edges="A2B2 B2C2 C2D2 D2E2 E2E3" probability="0.10"/>
    <route id="r_11" edges="A2B2 B2C2 C2C3 C3D3 D3E3" probability="0.10"/>
    <route id="r_12" edges="A1B1 B1C1 C1D1 D1D0 D0E0" probability="0.15"/>
    <route id="r_13" edges="A1B1 B1B0 B0C0 C0D0 D0E0" probability="0.10"/>
    <route id="r_14" edges="E1D1 D1C1 C1C0 C0B0 B0A0" probability="0.10"/>
    <route id="r_15" edges="E1D1 D1C1 C1B1 B1B2 B2A2" probability="0.15"/>
    <route id="r_16" edges="A0B0 B0C0 C0D0 D0E0" probability="0.10"/>
    <route id="r_2" edges="A3B3 B3C3 C3D3 D3D4" probability="0.10"/>
    <route id="r_3" edges="A3B3 B3C3 C3D3 D3D2 D2E2 E2E1" probability="0.10"/>
    <route id="r_4" edges="E4E3 E3D3 D3C3 C3B3 B3A3 A3A2" probability="0.15"/>
    <route id="r_5" edges="E4E3 E3D3 D3C3 C3B3 B3B2 B2A2 A2A1" probability="0.10"/>
    <route id="r_6" edges="E3E2 E2D2 D2C2 C2B2 B2B3 B3A3 A3A4" probability="0.10"/>
    <route id="r_7" edges="E3E2 E2D2 D2C2 C2B2 B2B1 B1A1 A1A2" probability="0.15"/>
    <route id="r_8" edges="E1E2 E2D2 D2C2 C2B2 B2B3 B3A3 A3A4" probability="0.10"/>
    <route id="r_9" edges="A2B2 B2C2 C2D2 D2D1 D1E1 E1E0" probability="0.10"/>
</routeDistribution>
<!-- Vehicles, persons and containers (sorted by depart) -->
    <flow id="f_0" begin="0.00" route="ways" end="1200.00" vehsPerHour="200.00"/>
    <flow id="f_1" begin="0.00" route="ways1" end="1200.00" vehsPerHour="200.00"/>
    <flow id="f_2" begin="0.00" route="ways2" end="1200.00" vehsPerHour="100.00"/>

    <flow id="f_3" begin="1200.00" route="ways" end="2400.00" vehsPerHour="500.00"/>
    <flow id="f_4" begin="1200.00" route="ways1" end="2400.00" vehsPerHour="1500.00"/>
    <flow id="f_5" begin="1200.00" route="ways2" end="2400.00" vehsPerHour="300.00"/>	

    <flow id="f_6" begin="2400.00" route="ways" end="3600.00" vehsPerHour="300.00"/>
    <flow id="f_7" begin="2400.00" route="ways1" end="3600.00" vehsPerHour="200.00"/>
    <flow id="f_8" begin="2400.00" route="ways2" end="3600.00" vehsPerHour="100.00"/>

    <flow id="f_9" begin="3600.00" route="ways" end="4800.00" vehsPerHour="1000.00"/>
    <flow id="f_10" begin="3600.00" route="ways1" end="4800.00" vehsPerHour="500.00"/>
    <flow id="f_11" begin="3600.00" route="ways2" end="4800.00" vehsPerHour="300.00"/>	

    <flow id="f_12" begin="4800.00" route="ways" end="6000.00" vehsPerHour="200.00"/>
    <flow id="f_13" begin="4800.00" route="ways1" end="6000.00" vehsPerHour="200.00"/>
    <flow id="f_14" begin="4800.00" route="ways2" end="6000.00" vehsPerHour="100.00"/>
</routes>
