<?xml version="1.0" encoding="UTF-8"?>

<!-- generated on 2023-11-16 16:21:22 by Eclipse SUMO netedit Version 1.18.0
<configuration xmlns:xsi="http://www.w3.org/2001/XMLSchema-instance" xsi:noNamespaceSchemaLocation="http://sumo.dlr.de/xsd/neteditConfiguration.xsd">

    <input>
        <sumo-net-file value="D:\Personal\dESKTOP\Egyretem\PJ\PROJS\Git\traffic_light_optimization\petting_zoo_test\fumocrossing\IV\IV.net.xml"/>
    </input>

    <output>
        <output-file value="D:\Personal\dESKTOP\Egyretem\PJ\PROJS\Git\traffic_light_optimization\petting_zoo_test\fumocrossing\IV\IV.net.xml"/>
    </output>

    <processing>
        <geometry.min-radius.fix.railways value="false"/>
        <geometry.max-grade.fix value="false"/>
        <offset.disable-normalization value="true"/>
        <lefthand value="0"/>
    </processing>

    <junctions>
        <no-turnarounds value="true"/>
        <junctions.corner-detail value="5"/>
        <junctions.limit-turn-speed value="5.50"/>
        <rectangular-lane-cut value="0"/>
    </junctions>

    <pedestrian>
        <walkingareas value="0"/>
    </pedestrian>

</configuration>
-->

<net version="1.16" junctionCornerDetail="5" limitTurnSpeed="5.50" xmlns:xsi="http://www.w3.org/2001/XMLSchema-instance" xsi:noNamespaceSchemaLocation="http://sumo.dlr.de/xsd/net_file.xsd">

    <location netOffset="0.00,0.00" convBoundary="92.99,33.90,330.23,165.59" origBoundary="0.00,0.00,400.00,400.00" projParameter="!"/>

    <edge id=":A1_0" function="internal">
        <lane id=":A1_0_0" index="0" speed="3.65" length="4.67" shape="93.18,100.67 91.89,100.02 91.40,99.27 91.70,98.43 92.80,97.49"/>
    </edge>
    <edge id=":B0_0" function="internal">
        <lane id=":B0_0_0" index="0" speed="3.65" length="4.67" shape="135.07,34.22 135.62,32.88 136.32,32.33 137.18,32.56 138.21,33.58"/>
    </edge>
    <edge id=":B1_0" function="internal">
        <lane id=":B1_0_0" index="0" speed="6.36" length="9.25" shape="147.16,103.53 146.75,100.94 145.65,99.18 143.84,98.26 141.32,98.18"/>
    </edge>
    <edge id=":B1_1" function="internal">
        <lane id=":B1_1_0" index="0" speed="13.89" length="21.33" shape="147.16,103.53 146.90,98.80 146.35,92.90 145.63,87.01 144.86,82.34"/>
    </edge>
    <edge id=":B1_2" function="internal">
        <lane id=":B1_2_0" index="0" speed="8.42" length="4.73" shape="147.16,103.53 147.61,98.82"/>
    </edge>
    <edge id=":B1_3" function="internal">
        <lane id=":B1_3_0" index="0" speed="3.65" length="1.44" shape="147.16,103.53 147.94,102.32"/>
    </edge>
    <edge id=":B1_18" function="internal">
        <lane id=":B1_18_0" index="0" speed="8.42" length="13.08" shape="147.61,98.82 147.69,97.98 149.50,94.23 152.61,92.27 157.00,92.11"/>
    </edge>
    <edge id=":B1_19" function="internal">
        <lane id=":B1_19_0" index="0" speed="3.65" length="3.23" shape="147.94,102.32 148.73,101.90 149.54,102.29 150.36,103.47"/>
    </edge>
    <edge id=":B1_4" function="internal">
        <lane id=":B1_4_0" index="0" speed="6.18" length="9.05" shape="156.08,98.44 153.54,98.43 151.74,99.27 150.68,100.95 150.36,103.47"/>
    </edge>
    <edge id=":B1_5" function="internal">
        <lane id=":B1_5_0" index="0" speed="13.89" length="15.26" shape="156.08,98.44 151.72,97.83 148.71,97.58 145.69,97.71 141.32,98.18"/>
        <lane id=":B1_5_1" index="1" speed="13.89" length="15.26" shape="156.54,95.27 151.94,94.63 148.75,94.37 145.56,94.50 140.95,95.00"/>
    </edge>
    <edge id=":B1_7" function="internal">
        <lane id=":B1_7_0" index="0" speed="10.53" length="4.30" shape="156.54,95.27 152.43,93.99"/>
    </edge>
    <edge id=":B1_8" function="internal">
        <lane id=":B1_8_0" index="0" speed="3.65" length="1.44" shape="156.54,95.27 155.47,94.31"/>
    </edge>
    <edge id=":B1_20" function="internal">
        <lane id=":B1_20_0" index="0" speed="10.53" length="14.36" shape="152.43,93.99 152.31,93.95 148.96,91.36 146.47,87.49 144.86,82.34"/>
    </edge>
    <edge id=":B1_21" function="internal">
        <lane id=":B1_21_0" index="0" speed="3.65" length="3.23" shape="155.47,94.31 155.19,93.46 155.70,92.72 157.00,92.11"/>
    </edge>
    <edge id=":B1_9" function="internal">
        <lane id=":B1_9_0" index="0" speed="8.79" length="12.75" shape="148.00,81.70 149.05,84.42 150.98,86.53 153.78,88.04 157.46,88.94"/>
    </edge>
    <edge id=":B1_10" function="internal">
        <lane id=":B1_10_0" index="0" speed="13.89" length="21.92" shape="148.00,81.70 148.77,86.46 149.52,92.55 150.09,98.65 150.36,103.47"/>
    </edge>
    <edge id=":B1_11" function="internal">
        <lane id=":B1_11_0" index="0" speed="8.56" length="6.18" shape="148.00,81.70 148.49,87.10 148.30,87.84"/>
    </edge>
    <edge id=":B1_12" function="internal">
        <lane id=":B1_12_0" index="0" speed="3.65" length="1.44" shape="148.00,81.70 147.45,83.03"/>
    </edge>
    <edge id=":B1_22" function="internal">
        <lane id=":B1_22_0" index="0" speed="8.56" length="11.23" shape="148.30,87.84 147.47,91.11 144.96,93.75 140.95,95.00"/>
    </edge>
    <edge id=":B1_23" function="internal">
        <lane id=":B1_23_0" index="0" speed="3.65" length="3.23" shape="147.45,83.03 146.75,83.59 145.88,83.35 144.86,82.34"/>
    </edge>
    <edge id=":B1_13" function="internal">
        <lane id=":B1_13_0" index="0" speed="6.36" length="9.13" shape="140.19,88.65 142.66,88.00 144.27,86.73 145.00,84.84 144.86,82.34"/>
    </edge>
    <edge id=":B1_14" function="internal">
        <lane id=":B1_14_0" index="0" speed="13.89" length="16.94" shape="140.19,88.65 145.31,88.09 148.84,87.94 152.37,88.22 157.46,88.94"/>
        <lane id=":B1_14_1" index="1" speed="13.89" length="16.94" shape="140.57,91.83 145.44,91.29 148.80,91.16 152.15,91.42 157.00,92.11"/>
    </edge>
    <edge id=":B1_16" function="internal">
        <lane id=":B1_16_0" index="0" speed="8.56" length="3.97" shape="140.57,91.83 144.53,92.11"/>
    </edge>
    <edge id=":B1_17" function="internal">
        <lane id=":B1_17_0" index="0" speed="3.65" length="1.44" shape="140.57,91.83 141.85,92.48"/>
    </edge>
    <edge id=":B1_24" function="internal">
        <lane id=":B1_24_0" index="0" speed="8.56" length="13.67" shape="144.53,92.11 144.77,92.13 147.80,94.17 149.66,97.95 150.36,103.47"/>
    </edge>
    <edge id=":B1_25" function="internal">
        <lane id=":B1_25_0" index="0" speed="3.65" length="3.23" shape="141.85,92.48 142.35,93.23 142.04,94.07 140.95,95.00"/>
    </edge>
    <edge id=":B2_0" function="internal">
        <lane id=":B2_0_0" index="0" speed="3.65" length="4.67" shape="151.43,162.37 150.65,163.59 149.86,164.00 149.05,163.61 148.23,162.43"/>
    </edge>
    <edge id=":C0_0" function="internal">
        <lane id=":C0_0_0" index="0" speed="3.65" length="4.67" shape="199.77,34.78 200.60,33.59 201.40,33.21 202.20,33.63 202.97,34.84"/>
    </edge>
    <edge id=":C1_0" function="internal">
        <lane id=":C1_0_0" index="0" speed="8.71" length="12.76" shape="200.46,111.24 199.44,108.32 197.58,106.08 194.89,104.50 191.37,103.59"/>
    </edge>
    <edge id=":C1_1" function="internal">
        <lane id=":C1_1_0" index="0" speed="13.89" length="22.21" shape="200.46,111.24 199.77,106.41 199.16,100.21 198.74,93.99 198.63,89.12"/>
    </edge>
    <edge id=":C1_2" function="internal">
        <lane id=":C1_2_0" index="0" speed="8.39" length="6.31" shape="200.46,111.24 200.06,105.62 200.26,104.97"/>
    </edge>
    <edge id=":C1_3" function="internal">
        <lane id=":C1_3_0" index="0" speed="3.65" length="1.44" shape="200.46,111.24 201.02,109.91"/>
    </edge>
    <edge id=":C1_18" function="internal">
        <lane id=":C1_18_0" index="0" speed="8.39" length="11.67" shape="200.26,104.97 201.28,101.62 204.09,99.23 208.50,98.46"/>
    </edge>
    <edge id=":C1_19" function="internal">
        <lane id=":C1_19_0" index="0" speed="3.65" length="3.23" shape="201.02,109.91 201.74,109.37 202.60,109.62 203.60,110.65"/>
    </edge>
    <edge id=":C1_4" function="internal">
        <lane id=":C1_4_0" index="0" speed="6.13" length="9.06" shape="208.46,104.86 205.93,105.20 204.27,106.29 203.50,108.10 203.60,110.65"/>
    </edge>
    <edge id=":C1_5" function="internal">
        <lane id=":C1_5_0" index="0" speed="13.89" length="16.94" shape="208.46,104.86 203.36,104.81 199.88,104.67 196.41,104.30 191.37,103.59"/>
        <lane id=":C1_5_1" index="1" speed="13.89" length="16.94" shape="208.48,101.66 203.52,101.61 200.12,101.47 196.74,101.12 191.83,100.42"/>
    </edge>
    <edge id=":C1_7" function="internal">
        <lane id=":C1_7_0" index="0" speed="8.94" length="4.16" shape="208.48,101.66 204.38,100.90"/>
    </edge>
    <edge id=":C1_8" function="internal">
        <lane id=":C1_8_0" index="0" speed="3.65" length="1.44" shape="208.48,101.66 207.28,100.85"/>
    </edge>
    <edge id=":C1_20" function="internal">
        <lane id=":C1_20_0" index="0" speed="8.94" length="14.01" shape="204.38,100.90 204.07,100.85 200.96,98.49 199.15,94.58 198.63,89.12"/>
    </edge>
    <edge id=":C1_21" function="internal">
        <lane id=":C1_21_0" index="0" speed="3.65" length="3.23" shape="207.28,100.85 206.89,100.05 207.29,99.25 208.50,98.46"/>
    </edge>
    <edge id=":C1_9" function="internal">
        <lane id=":C1_9_0" index="0" speed="6.88" length="10.32" shape="201.83,89.19 202.20,91.83 203.44,93.72 205.54,94.86 208.52,95.26"/>
    </edge>
    <edge id=":C1_10" function="internal">
        <lane id=":C1_10_0" index="0" speed="13.89" length="21.56" shape="201.83,89.19 201.93,93.96 202.33,99.95 202.93,105.93 203.60,110.65"/>
    </edge>
    <edge id=":C1_11" function="internal">
        <lane id=":C1_11_0" index="0" speed="8.48" length="4.57" shape="201.83,89.19 201.22,93.72"/>
    </edge>
    <edge id=":C1_12" function="internal">
        <lane id=":C1_12_0" index="0" speed="3.65" length="1.44" shape="201.83,89.19 201.00,90.37"/>
    </edge>
    <edge id=":C1_22" function="internal">
        <lane id=":C1_22_0" index="0" speed="8.48" length="13.00" shape="201.22,93.72 201.10,94.64 199.20,98.33 196.10,100.25 191.83,100.42"/>
    </edge>
    <edge id=":C1_23" function="internal">
        <lane id=":C1_23_0" index="0" speed="3.65" length="3.23" shape="201.00,90.37 200.19,90.75 199.40,90.34 198.63,89.12"/>
    </edge>
    <edge id=":C1_13" function="internal">
        <lane id=":C1_13_0" index="0" speed="6.25" length="9.05" shape="192.76,94.09 195.28,94.10 197.10,93.27 198.22,91.61 198.63,89.12"/>
    </edge>
    <edge id=":C1_14" function="internal">
        <lane id=":C1_14_0" index="0" speed="13.89" length="16.05" shape="192.76,94.09 197.41,94.75 200.61,95.08 203.82,95.21 208.52,95.26"/>
        <lane id=":C1_14_1" index="1" speed="13.89" length="16.05" shape="192.29,97.26 197.07,97.93 200.36,98.28 203.67,98.41 208.50,98.46"/>
    </edge>
    <edge id=":C1_16" function="internal">
        <lane id=":C1_16_0" index="0" speed="10.48" length="4.13" shape="192.29,97.26 196.22,98.53"/>
    </edge>
    <edge id=":C1_17" function="internal">
        <lane id=":C1_17_0" index="0" speed="3.65" length="1.44" shape="192.29,97.26 193.36,98.22"/>
    </edge>
    <edge id=":C1_24" function="internal">
        <lane id=":C1_24_0" index="0" speed="10.48" length="14.67" shape="196.22,98.53 196.40,98.59 199.66,101.27 202.06,105.29 203.60,110.65"/>
    </edge>
    <edge id=":C1_25" function="internal">
        <lane id=":C1_25_0" index="0" speed="3.65" length="3.23" shape="193.36,98.22 193.65,99.07 193.13,99.81 191.83,100.42"/>
    </edge>
    <edge id=":C2_0" function="internal">
        <lane id=":C2_0_0" index="0" speed="3.65" length="4.67" shape="211.91,155.51 211.35,156.83 210.63,157.37 209.77,157.13 208.77,156.09"/>
    </edge>
    <edge id=":D0_0" function="internal">
        <lane id=":D0_0_0" index="0" speed="3.65" length="4.67" shape="268.46,37.91 269.64,37.07 270.53,36.98 271.13,37.64 271.46,39.05"/>
    </edge>
    <edge id=":D1_0" function="internal">
        <lane id=":D1_0_0" index="0" speed="7.19" length="10.04" shape="246.41,111.64 245.69,108.78 244.40,106.73 242.55,105.49 240.14,105.07"/>
    </edge>
    <edge id=":D1_1" function="internal">
        <lane id=":D1_1_0" index="0" speed="13.89" length="23.03" shape="246.41,111.64 246.30,106.65 246.85,100.15 247.86,93.71 249.13,88.88"/>
    </edge>
    <edge id=":D1_2" function="internal">
        <lane id=":D1_2_0" index="0" speed="8.46" length="7.65" shape="246.41,111.64 246.34,105.97 247.06,104.13"/>
    </edge>
    <edge id=":D1_3" function="internal">
        <lane id=":D1_3_0" index="0" speed="3.65" length="1.44" shape="246.41,111.64 247.04,110.34"/>
    </edge>
    <edge id=":D1_18" function="internal">
        <lane id=":D1_18_0" index="0" speed="8.46" length="10.88" shape="247.06,104.13 247.88,102.04 251.05,99.85 255.83,99.40"/>
    </edge>
    <edge id=":D1_19" function="internal">
        <lane id=":D1_19_0" index="0" speed="3.65" length="3.23" shape="247.04,110.34 247.78,109.84 248.63,110.13 249.58,111.21"/>
    </edge>
    <edge id=":D1_4" function="internal">
        <lane id=":D1_4_0" index="0" speed="6.24" length="9.53" shape="255.35,105.79 252.53,105.94 250.62,106.90 249.64,108.65 249.58,111.21"/>
    </edge>
    <edge id=":D1_5" function="internal">
        <lane id=":D1_5_0" index="0" speed="13.89" length="15.34" shape="255.35,105.79 240.14,105.07"/>
        <lane id=":D1_5_1" index="1" speed="13.89" length="15.34" shape="255.59,102.59 240.16,101.87"/>
    </edge>
    <edge id=":D1_7" function="internal">
        <lane id=":D1_7_0" index="0" speed="8.28" length="3.60" shape="255.59,102.59 252.09,101.71"/>
    </edge>
    <edge id=":D1_8" function="internal">
        <lane id=":D1_8_0" index="0" speed="3.65" length="1.44" shape="255.59,102.59 254.45,101.71"/>
    </edge>
    <edge id=":D1_20" function="internal">
        <lane id=":D1_20_0" index="0" speed="8.28" length="15.04" shape="252.09,101.71 250.93,101.42 248.30,98.74 247.70,94.56 249.13,88.88"/>
    </edge>
    <edge id=":D1_21" function="internal">
        <lane id=":D1_21_0" index="0" speed="3.65" length="3.23" shape="254.45,101.71 254.11,100.88 254.57,100.11 255.83,99.40"/>
    </edge>
    <edge id=":D1_9" function="internal">
        <lane id=":D1_9_0" index="0" speed="5.97" length="9.08" shape="252.12,90.01 251.55,92.55 252.02,94.43 253.52,95.65 256.07,96.21"/>
    </edge>
    <edge id=":D1_10" function="internal">
        <lane id=":D1_10_0" index="0" speed="13.89" length="21.46" shape="252.12,90.01 250.88,94.60 249.93,100.51 249.44,106.47 249.58,111.21"/>
    </edge>
    <edge id=":D1_11" function="internal">
        <lane id=":D1_11_0" index="0" speed="10.37" length="3.85" shape="252.12,90.01 250.49,93.49"/>
    </edge>
    <edge id=":D1_12" function="internal">
        <lane id=":D1_12_0" index="0" speed="3.65" length="1.33" shape="252.12,90.01 251.04,90.78"/>
    </edge>
    <edge id=":D1_22" function="internal">
        <lane id=":D1_22_0" index="0" speed="10.37" length="14.04" shape="250.49,93.49 249.68,95.22 246.87,98.93 243.70,101.15 240.16,101.87"/>
    </edge>
    <edge id=":D1_23" function="internal">
        <lane id=":D1_23_0" index="0" speed="3.65" length="3.34" shape="251.04,90.78 250.95,90.85 250.06,90.94 249.45,90.28 249.13,88.88"/>
    </edge>
    <edge id=":D1_13" function="internal">
        <lane id=":D1_13_0" index="0" speed="8.54" length="11.88" shape="240.20,95.47 243.16,95.07 245.64,93.84 247.63,91.78 249.13,88.88"/>
    </edge>
    <edge id=":D1_14" function="internal">
        <lane id=":D1_14_0" index="0" speed="13.89" length="15.77" shape="240.20,95.47 256.07,96.21"/>
        <lane id=":D1_14_1" index="1" speed="13.89" length="15.77" shape="240.18,98.67 255.83,99.40"/>
    </edge>
    <edge id=":D1_16" function="internal">
        <lane id=":D1_16_0" index="0" speed="9.23" length="3.57" shape="240.18,98.67 243.66,99.47"/>
    </edge>
    <edge id=":D1_17" function="internal">
        <lane id=":D1_17_0" index="0" speed="3.65" length="1.44" shape="240.18,98.67 241.38,99.48"/>
    </edge>
    <edge id=":D1_24" function="internal">
        <lane id=":D1_24_0" index="0" speed="9.23" length="13.59" shape="243.66,99.47 246.39,101.83 248.36,105.74 249.58,111.21"/>
    </edge>
    <edge id=":D1_25" function="internal">
        <lane id=":D1_25_0" index="0" speed="3.65" length="3.23" shape="241.38,99.48 241.77,100.28 241.37,101.08 240.16,101.87"/>
    </edge>
    <edge id=":D2_0" function="internal">
        <lane id=":D2_0_0" index="0" speed="3.65" length="4.67" shape="256.85,165.38 256.21,166.67 255.47,167.18 254.63,166.89 253.67,165.80"/>
    </edge>
    <edge id=":E1_0" function="internal">
        <lane id=":E1_0_0" index="0" speed="3.65" length="4.67" shape="330.35,104.97 331.49,105.86 331.83,106.69 331.37,107.46 330.11,108.17"/>
    </edge>

    <edge id="A1B1" from="A1" to="B1" priority="-1">
        <lane id="A1B1_0" index="0" speed="13.89" length="48.10" shape="92.42,94.31 140.19,88.65"/>
        <lane id="A1B1_1" index="1" speed="13.89" length="48.10" shape="92.80,97.49 140.57,91.83"/>
    </edge>
    <edge id="B0B1" from="B0" to="B1" priority="-1">
        <lane id="B0B1_0" index="0" speed="13.89" length="49.10" shape="138.21,33.58 148.00,81.70"/>
    </edge>
    <edge id="B1A1" from="B1" to="A1" priority="-1">
        <lane id="B1A1_0" index="0" speed="13.89" length="48.10" shape="141.32,98.18 93.56,103.85"/>
        <lane id="B1A1_1" index="1" speed="13.89" length="48.10" shape="140.95,95.00 93.18,100.67"/>
    </edge>
    <edge id="B1B0" from="B1" to="B0" priority="-1">
        <lane id="B1B0_0" index="0" speed="13.89" length="49.10" shape="144.86,82.34 135.07,34.22"/>
    </edge>
    <edge id="B1B2" from="B1" to="B2" priority="-1">
        <lane id="B1B2_0" index="0" speed="13.89" length="58.91" shape="150.36,103.47 151.43,162.37"/>
    </edge>
    <edge id="B1C1" from="B1" to="C1" priority="-1">
        <lane id="B1C1_0" index="0" speed="13.89" length="35.67" shape="157.46,88.94 192.76,94.09"/>
        <lane id="B1C1_1" index="1" speed="13.89" length="35.67" shape="157.00,92.11 192.29,97.26"/>
    </edge>
    <edge id="B2B1" from="B2" to="B1" priority="-1">
        <lane id="B2B1_0" index="0" speed="13.89" length="58.91" shape="148.23,162.43 147.16,103.53"/>
    </edge>
    <edge id="C0C1" from="C0" to="C1" priority="-1">
        <lane id="C0C1_0" index="0" speed="13.89" length="54.36" shape="202.97,34.84 201.83,89.19"/>
    </edge>
    <edge id="C1B1" from="C1" to="B1" priority="-1">
        <lane id="C1B1_0" index="0" speed="13.89" length="35.67" shape="191.37,103.59 156.08,98.44"/>
        <lane id="C1B1_1" index="1" speed="13.89" length="35.67" shape="191.83,100.42 156.54,95.27"/>
    </edge>
    <edge id="C1C0" from="C1" to="C0" priority="-1">
        <lane id="C1C0_0" index="0" speed="13.89" length="54.36" shape="198.63,89.12 199.77,34.78"/>
    </edge>
    <edge id="C1C2" from="C1" to="C2" priority="-1">
        <lane id="C1C2_0" index="0" speed="13.89" length="45.62" shape="203.60,110.65 211.91,155.51"/>
    </edge>
    <edge id="C1D1" from="C1" to="D1" priority="-1">
        <lane id="C1D1_0" index="0" speed="13.89" length="31.68" shape="208.52,95.26 240.20,95.47"/>
        <lane id="C1D1_1" index="1" speed="13.89" length="31.68" shape="208.50,98.46 240.18,98.67"/>
    </edge>
    <edge id="C2C1" from="C2" to="C1" priority="-1">
        <lane id="C2C1_0" index="0" speed="13.89" length="45.62" shape="208.77,156.09 200.46,111.24"/>
    </edge>
    <edge id="D0D1" from="D0" to="D1" priority="-1">
        <lane id="D0D1_0" index="0" speed="13.89" length="54.51" shape="271.46,39.05 252.12,90.01"/>
    </edge>
    <edge id="D1C1" from="D1" to="C1" priority="-1">
        <lane id="D1C1_0" index="0" speed="13.89" length="31.68" shape="240.14,105.07 208.46,104.86"/>
        <lane id="D1C1_1" index="1" speed="13.89" length="31.68" shape="240.16,101.87 208.48,101.66"/>
    </edge>
    <edge id="D1D0" from="D1" to="D0" priority="-1">
        <lane id="D1D0_0" index="0" speed="13.89" length="54.51" shape="249.13,88.88 268.46,37.91"/>
    </edge>
    <edge id="D1D2" from="D1" to="D2" priority="-1">
        <lane id="D1D2_0" index="0" speed="13.89" length="54.65" shape="249.58,111.21 256.85,165.38"/>
    </edge>
    <edge id="D1E1" from="D1" to="E1" priority="-1">
        <lane id="D1E1_0" index="0" speed="13.89" length="74.73" shape="256.07,96.21 330.59,101.78"/>
        <lane id="D1E1_1" index="1" speed="13.89" length="74.73" shape="255.83,99.40 330.35,104.97"/>
    </edge>
    <edge id="D2D1" from="D2" to="D1" priority="-1">
        <lane id="D2D1_0" index="0" speed="13.89" length="54.65" shape="253.67,165.80 246.41,111.64"/>
    </edge>
    <edge id="E1D1" from="E1" to="D1" priority="-1">
        <lane id="E1D1_0" index="0" speed="13.89" length="74.73" shape="329.87,111.36 255.35,105.79"/>
        <lane id="E1D1_1" index="1" speed="13.89" length="74.73" shape="330.11,108.17 255.59,102.59"/>
    </edge>

    <tlLogic id="B1" type="static" programID="0" offset="0">
        <phase duration="42" state="rrrrGGGggrrrrGGGgg"/>
        <phase duration="3"  state="rrrryyyyyrrrryyyyy"/>
        <phase duration="42" state="GGggrrrrrGGggrrrrr"/>
        <phase duration="3"  state="yyyyrrrrryyyyrrrrr"/>
    </tlLogic>
    <tlLogic id="C1" type="static" programID="0" offset="0">
        <phase duration="42" state="rrrrGGGggrrrrGGGgg"/>
        <phase duration="3"  state="rrrryyyyyrrrryyyyy"/>
        <phase duration="42" state="GGggrrrrrGGggrrrrr"/>
        <phase duration="3"  state="yyyyrrrrryyyyrrrrr"/>
    </tlLogic>
    <tlLogic id="D1" type="static" programID="0" offset="0">
        <phase duration="42" state="rrrrGGGggrrrrGGGgg"/>
        <phase duration="3"  state="rrrryyyyyrrrryyyyy"/>
        <phase duration="42" state="GGggrrrrrGGggrrrrr"/>
        <phase duration="3"  state="yyyyrrrrryyyyrrrrr"/>
    </tlLogic>

    <junction id="A1" type="priority" x="92.99" y="99.08" incLanes="B1A1_0 B1A1_1" intLanes=":A1_0_0" shape="92.99,99.08 93.74,105.44 92.99,99.08">
        <request index="0" response="0" foes="0" cont="0"/>
    </junction>
    <junction id="B0" type="priority" x="136.64" y="33.90" incLanes="B1B0_0" intLanes=":B0_0_0" shape="136.64,33.90 133.50,34.54 136.64,33.90">
        <request index="0" response="0" foes="0" cont="0"/>
    </junction>
    <junction id="B1" type="traffic_light" x="148.56" y="92.49" incLanes="B2B1_0 C1B1_0 C1B1_1 B0B1_0 A1B1_0 A1B1_1" intLanes=":B1_0_0 :B1_1_0 :B1_18_0 :B1_19_0 :B1_4_0 :B1_5_0 :B1_5_1 :B1_20_0 :B1_21_0 :B1_9_0 :B1_10_0 :B1_22_0 :B1_23_0 :B1_13_0 :B1_14_0 :B1_14_1 :B1_24_0 :B1_25_0" shape="145.56,103.56 151.96,103.44 152.36,101.29 152.89,100.59 153.65,100.14 154.64,99.96 155.84,100.02 157.69,87.36 155.49,86.90 153.62,86.23 152.10,85.34 150.91,84.24 150.07,82.92 149.57,81.38 143.29,82.66 143.28,84.89 142.87,85.72 142.19,86.36 141.23,86.80 140.00,87.06 141.51,99.77 143.73,99.98 144.51,100.48 145.08,101.25 145.43,102.27">
        <request index="0"  response="000000000001100000" foes="000000000001100000" cont="0"/>
        <request index="1"  response="011110000011100000" foes="011111100011100000" cont="0"/>
        <request index="2"  response="011100010011100000" foes="011100010111100000" cont="1"/>
        <request index="3"  response="010000010000010000" foes="010000010000010000" cont="1"/>
        <request index="4"  response="000000000000000000" foes="010000010000001000" cont="0"/>
        <request index="5"  response="000000100000000100" foes="110000110000000111" cont="0"/>
        <request index="6"  response="000000100000000100" foes="110000110000000111" cont="0"/>
        <request index="7"  response="001110100000000100" foes="001111110000000110" cont="1"/>
        <request index="8"  response="001100000000000100" foes="001100000000000100" cont="1"/>
        <request index="9"  response="001100000000000000" foes="001100000000000000" cont="0"/>
        <request index="10" response="011100000011110000" foes="011100000011111100" cont="0"/>
        <request index="11" response="011100000011100010" foes="111100000011100010" cont="1"/>
        <request index="12" response="000010000010000010" foes="000010000010000010" cont="1"/>
        <request index="13" response="000000000000000000" foes="000001000010000010" cont="0"/>
        <request index="14" response="000000100000000100" foes="000000111110000110" cont="0"/>
        <request index="15" response="000000100000000100" foes="000000111110000110" cont="0"/>
        <request index="16" response="000000100001110100" foes="000000110001111110" cont="1"/>
        <request index="17" response="000000100001100000" foes="000000100001100000" cont="1"/>
    </junction>
    <junction id="B2" type="priority" x="149.83" y="162.40" incLanes="B1B2_0" intLanes=":B2_0_0" shape="149.83,162.40 153.03,162.34 149.83,162.40">
        <request index="0" response="0" foes="0" cont="0"/>
    </junction>
    <junction id="C0" type="priority" x="201.37" y="34.81" incLanes="C1C0_0" intLanes=":C0_0_0" shape="201.37,34.81 198.17,34.74 201.37,34.81">
        <request index="0" response="0" foes="0" cont="0"/>
    </junction>
    <junction id="C1" type="traffic_light" x="200.00" y="100.00" incLanes="C2C1_0 D1C1_0 D1C1_1 C0C1_0 B1C1_0 B1C1_1" intLanes=":C1_0_0 :C1_1_0 :C1_18_0 :C1_19_0 :C1_4_0 :C1_5_0 :C1_5_1 :C1_20_0 :C1_21_0 :C1_9_0 :C1_10_0 :C1_22_0 :C1_23_0 :C1_13_0 :C1_14_0 :C1_14_1 :C1_24_0 :C1_25_0" shape="198.88,111.53 205.17,110.36 205.21,108.18 205.63,107.42 206.30,106.88 207.24,106.56 208.45,106.46 208.53,93.66 205.65,93.15 204.66,92.53 203.95,91.67 203.54,90.57 203.43,89.22 197.03,89.09 196.54,91.24 195.98,91.94 195.19,92.38 194.20,92.57 192.99,92.51 191.14,105.17 193.23,105.62 195.00,106.32 196.45,107.26 197.58,108.44 198.39,109.86">
        <request index="0"  response="000000000001100000" foes="000000000001100000" cont="0"/>
        <request index="1"  response="011110000011100000" foes="011111100011100000" cont="0"/>
        <request index="2"  response="011100010011100000" foes="011100010111100000" cont="1"/>
        <request index="3"  response="010000010000010000" foes="010000010000010000" cont="1"/>
        <request index="4"  response="000000000000000000" foes="010000010000001000" cont="0"/>
        <request index="5"  response="000000100000000100" foes="110000110000000111" cont="0"/>
        <request index="6"  response="000000100000000100" foes="110000110000000111" cont="0"/>
        <request index="7"  response="001110100000000100" foes="001111110000000110" cont="1"/>
        <request index="8"  response="001100000000000100" foes="001100000000000100" cont="1"/>
        <request index="9"  response="001100000000000000" foes="001100000000000000" cont="0"/>
        <request index="10" response="011100000011110000" foes="011100000011111100" cont="0"/>
        <request index="11" response="011100000011100010" foes="111100000011100010" cont="1"/>
        <request index="12" response="000010000010000010" foes="000010000010000010" cont="1"/>
        <request index="13" response="000000000000000000" foes="000001000010000010" cont="0"/>
        <request index="14" response="000000100000000100" foes="000000111110000110" cont="0"/>
        <request index="15" response="000000100000000100" foes="000000111110000110" cont="0"/>
        <request index="16" response="000000100001110100" foes="000000110001111110" cont="1"/>
        <request index="17" response="000000100001100000" foes="000000100001100000" cont="1"/>
    </junction>
    <junction id="C2" type="priority" x="210.34" y="155.80" incLanes="C1C2_0" intLanes=":C2_0_0" shape="210.34,155.80 213.49,155.22 210.34,155.80">
        <request index="0" response="0" foes="0" cont="0"/>
    </junction>
    <junction id="D0" type="priority" x="269.96" y="38.48" incLanes="D1D0_0" intLanes=":D0_0_0" shape="269.96,38.48 266.97,37.34 269.96,38.48">
        <request index="0" response="0" foes="0" cont="0"/>
    </junction>
    <junction id="D1" type="traffic_light" x="246.50" y="100.31" incLanes="D2D1_0 E1D1_0 E1D1_1 D0D1_0 C1D1_0 C1D1_1" intLanes=":D1_0_0 :D1_1_0 :D1_18_0 :D1_19_0 :D1_4_0 :D1_5_0 :D1_5_1 :D1_20_0 :D1_21_0 :D1_9_0 :D1_10_0 :D1_22_0 :D1_23_0 :D1_13_0 :D1_14_0 :D1_14_1 :D1_24_0 :D1_25_0" shape="244.82,111.85 251.16,111.00 251.38,108.84 251.91,108.11 252.73,107.63 253.84,107.39 255.23,107.38 256.18,94.62 254.13,94.04 253.55,93.46 253.27,92.69 253.29,91.73 253.62,90.58 247.63,88.31 245.86,91.41 244.72,92.50 243.39,93.27 241.89,93.72 240.21,93.87 240.13,106.67 242.43,107.26 243.30,107.98 243.99,108.98 244.50,110.28">
        <request index="0"  response="000000000001100000" foes="000000000001100000" cont="0"/>
        <request index="1"  response="011110000011100000" foes="011111100011100000" cont="0"/>
        <request index="2"  response="011100010011100000" foes="011100010111100000" cont="1"/>
        <request index="3"  response="010000010000010000" foes="010000010000010000" cont="1"/>
        <request index="4"  response="000000000000000000" foes="010000010000001000" cont="0"/>
        <request index="5"  response="000000100000000100" foes="110000110000000111" cont="0"/>
        <request index="6"  response="000000100000000100" foes="110000110000000111" cont="0"/>
        <request index="7"  response="001110100000000100" foes="001111110000000110" cont="1"/>
        <request index="8"  response="001100000000000100" foes="001100000000000100" cont="1"/>
        <request index="9"  response="001100000000000000" foes="001100000000000000" cont="0"/>
        <request index="10" response="011100000011110000" foes="011100000011111100" cont="0"/>
        <request index="11" response="011100000011100010" foes="111100000011100010" cont="1"/>
        <request index="12" response="000010000010000010" foes="000010000010000010" cont="1"/>
        <request index="13" response="000000000000000000" foes="000001000010000010" cont="0"/>
        <request index="14" response="000000100000000100" foes="000000111110000110" cont="0"/>