<?xml version="1.0" encoding="UTF-8"?>

<!-- generated on 2023-11-12 20:52:44 by Eclipse SUMO netedit Version 1.18.0
-->

<routes>

<!-- Vehicles, persons and containers (sorted by depart) -->
    <flow id="flow_1" from="A3A4" to="B2B1" begin="0" end="100000" probability="0.1" departSpeed="max" departPos="base" departLane="best"/>
    	
</routes>
