<?xml version="1.0" encoding="UTF-8"?>

<!-- generated on 2023-11-12 20:36:23 by Eclipse SUMO sumo Version 1.18.0
-->

<configuration xmlns:xsi="http://www.w3.org/2001/XMLSchema-instance" xsi:noNamespaceSchemaLocation="http://sumo.dlr.de/xsd/sumoConfiguration.xsd">

    <input>
        <net-file value="third.net.xml"/>
        <route-files value="third.rou.xml"/>
    </input>

</configuration>
