<?xml version="1.0" encoding="UTF-8"?>

<!-- generated on 2023-11-16 15:33:34 by Eclipse SUMO sumo Version 1.18.0
-->

<configuration xmlns:xsi="http://www.w3.org/2001/XMLSchema-instance" xsi:noNamespaceSchemaLocation="http://sumo.dlr.de/xsd/sumoConfiguration.xsd">

    <input>
        <net-file value="1w.net.xml"/>
		<route-files value="routes225.xml"/>
    </input>

</configuration>
